*Heading
** Job name: OS_with_imperfaction Model name: OS_with_imperfaction
** Generated by: Abaqus/CAE 2020
*Preprint, echo=NO, model=NO, history=NO, contact=NO
**
** PARTS
**
*Part, name=BIAN
*Node
      1,   304.799988,  -355.600006,         20.5
      2,   304.799988,   355.600006,         20.5
      3,   304.799988,   355.600006,          2.5
      4,   304.799988,  -355.600006,          2.5
      5,  -304.799988,   355.600006,         20.5
      6,  -304.799988,   355.600006,          2.5
      7,  -304.799988,  -355.600006,         20.5
      8,  -304.799988,  -355.600006,          2.5
      9,  -93.3482208,  -231.771164,          2.5
     10,  -93.3482208,  -231.771164,         20.5
     11,  -211.451782,  -123.828827,         20.5
     12,  -211.451782,  -123.828827,          2.5
     13,   32.4000015,   217.800003,         20.5
     14,   32.4000015,   217.800003,          2.5
     15,           0.,   217.800003,          2.5
     16,           0.,   217.800003,         20.5
     17,         160.,   217.800003,         20.5
     18,         160.,   57.7999992,         20.5
     19,         160.,   57.7999992,          2.5
     20,         160.,   217.800003,          2.5
** ... 1432 like lines cut
*Element, type=S4R
   1,    1,   25,  751,  168
   2,   25,   26,  752,  751
   3,   26,   27,  753,  752
   4,   27,   28,  754,  753
   5,   28,   29,  755,  754
   6,   29,   30,  756,  755
   7,   30,   31,  757,  756
   8,   31,   32,  758,  757
   9,   32,   33,  759,  758
  10,   33,   34,  760,  759
  11,   34,   35,  761,  760
  12,   35,   36,  762,  761
  13,   36,   37,  763,  762
  14,   37,   38,  764,  763
  15,   38,   39,  765,  764
  16,   39,   40,  766,  765
  17,   40,   41,  767,  766
  18,   41,   42,  768,  767
  19,   42,   43,  769,  768
  20,   43,   44,  770,  769
** ... 1066 like lines cut
*Nset, nset=SET-8
    9,   10,   11,   12,   13,   14,   17,   18,   19,   20,   22,   23,  553,  554,  555,  556
  557,  558,  559,  560,  561,  562,  563,  564,  565,  566,  567,  568,  569,  570,  571,  572
  573,  574,  575,  576,  577,  578,  579,  580,  581,  582,  583,  584,  585,  586,  587,  588
  589,  590,  591,  592,  593,  594,  595,  596,  597,  598,  599,  600,  601,  602,  603,  604
  605,  606,  607,  608,  609,  610,  611,  612,  613,  614,  615,  616,  617,  618,  619,  620
  621,  622,  623,  624,  625,  626,  627,  628,  629,  630,  631,  632,  633,  634,  635,  636
  637,  638,  639,  640,  641,  642,  643,  644,  645,  646,  647,  648,  649,  650,  651,  652
  653,  654,  676,  677,  693,  694,  697,  698,  703,  704,  705,  706,  707,  708,  709,  710
  711,  712,  713,  714,  715,  716,  717,  718,  719,  720,  721,  722,  723,  724,  725,  726
  727,  728,  729,  730,  731,  732,  733,  734,  735,  736,  737,  738,  739,  740,  741,  742
  743,  744,  745,  746,  747,  748,  749,  750, 1271, 1272, 1273, 1274, 1275, 1276, 1277, 1278
 1279, 1280, 1281, 1282, 1283, 1284, 1285, 1286, 1287, 1288, 1289, 1290, 1291, 1292, 1293, 1294
 1295, 1296, 1297, 1298, 1299, 1300, 1301, 1302, 1303, 1304, 1305, 1306, 1307, 1308, 1309, 1310
 1311, 1312, 1313, 1314, 1315, 1316, 1317, 1318, 1319, 1320, 1321, 1322, 1323, 1324, 1325, 1326
 1327, 1328, 1329, 1330, 1331, 1332, 1333, 1334, 1335, 1336, 1337, 1338, 1339, 1340, 1341, 1342
 1343, 1344, 1345, 1346, 1347, 1348, 1349, 1350, 1351, 1352, 1353, 1354, 1355, 1356, 1357, 1358
 1359, 1360, 1361, 1362, 1363, 1364, 1365, 1366, 1405, 1406, 1407, 1408, 1409, 1410, 1411, 1412
 1413, 1414, 1415, 1416, 1417, 1418, 1419, 1420, 1421, 1422, 1423, 1424, 1425, 1426, 1427, 1428
 1429, 1430, 1431, 1432, 1433, 1434, 1435, 1436, 1437, 1438, 1439, 1440, 1441, 1442, 1443, 1444
 1445, 1446, 1447, 1448, 1449, 1450, 1451, 1452
*Elset, elset=SET-8
  793,  794,  795,  796,  797,  798,  799,  800,  801,  802,  803,  804,  805,  806,  807,  808
  809,  810,  811,  812,  813,  814,  815,  816,  817,  818,  819,  820,  821,  822,  823,  824
  825,  826,  827,  828,  829,  830,  831,  832,  833,  834,  835,  836,  837,  838,  839,  840
  841,  842,  843,  844,  845,  846,  847,  848,  849,  850,  851,  852,  853,  854,  855,  856
  857,  858,  859,  860,  861,  862,  863,  864,  865,  866,  867,  868,  869,  870,  871,  872
  873,  874,  875,  876,  877,  878,  879,  880,  881,  882,  883,  884,  885,  886,  887,  888
  889,  890,  891,  892,  893,  894,  895,  896,  897,  898,  899,  900,  901,  902,  903,  904
  905,  906,  907,  908,  909,  910,  911,  912,  913,  914,  915,  916,  917,  918,  919,  920
  921,  922,  923,  924,  925,  926,  927,  928,  929,  930,  931,  932,  933,  934,  935,  936
  937,  938,  939,  940,  941,  942, 1009, 1010, 1011, 1012, 1013, 1014, 1015, 1016, 1017, 1018
 1019, 1020, 1021, 1022, 1023, 1024, 1025, 1026, 1027, 1028, 1029, 1030, 1031, 1032, 1033, 1034
 1035, 1036, 1037, 1038, 1039, 1040, 1041, 1042, 1043, 1044, 1045, 1046, 1047, 1048, 1049, 1050
 1051, 1052, 1053, 1054, 1055, 1056, 1057, 1058, 1059, 1060, 1061, 1062, 1063, 1064, 1065, 1066
 1067, 1068, 1069, 1070, 1071, 1072, 1073, 1074, 1075, 1076, 1077, 1078, 1079, 1080, 1081, 1082
 1083, 1084, 1085, 1086
*Nset, nset=SET-9
    1,    2,    3,    4,    5,    6,    7,    8,   25,   26,   27,   28,   29,   30,   31,   32
   33,   34,   35,   36,   37,   38,   39,   40,   41,   42,   43,   44,   45,   46,   47,   48
   49,   50,   51,   52,   53,   54,   55,   56,   57,   58,   59,   60,   61,   62,   63,   64
   65,   66,   67,   68,   69,   70,   71,   72,   73,   74,   75,   76,   77,   78,   79,   80
   81,   82,   83,   84,   85,   86,   87,   88,   89,   90,   91,   92,   93,   94,   95,   96
   97,   98,   99,  100,  101,  102,  103,  104,  105,  106,  107,  108,  109,  110,  111,  112
  113,  114,  115,  116,  117,  118,  119,  120,  121,  122,  123,  124,  125,  126,  127,  128
  129,  130,  131,  132,  133,  134,  135,  136,  137,  138,  139,  140,  141,  142,  143,  144
  145,  146,  147,  148,  149,  150,  151,  152,  153,  154,  155,  156,  157,  158,  159,  160
  161,  162,  163,  164,  165,  166,  167,  168,  169,  170,  171,  172,  173,  174,  175,  176
  177,  178,  179,  180,  181,  182,  183,  184,  185,  186,  187,  188,  189,  190,  191,  192
  193,  194,  195,  196,  197,  198,  199,  200,  201,  202,  203,  204,  205,  206,  207,  208
  209,  210,  211,  212,  213,  214,  215,  216,  217,  218,  219,  220,  221,  222,  223,  224
  225,  226,  227,  228,  229,  230,  231,  232,  233,  234,  235,  236,  237,  238,  239,  240
  241,  242,  243,  244,  245,  246,  247,  248,  249,  250,  251,  252,  253,  254,  255,  256
  257,  258,  259,  260,  261,  262,  263,  264,  265,  266,  267,  268,  269,  270,  271,  272
  273,  274,  275,  276,  277,  278,  279,  280,  281,  282,  283,  284,  285,  286,  287,  288
  289,  290,  291,  292,  293,  294,  295,  296,  297,  298,  299,  300,  301,  302,  303,  304
  305,  306,  307,  308,  309,  310,  311,  312,  313,  314,  315,  316,  317,  318,  319,  320
  321,  322,  323,  324,  325,  326,  327,  328,  329,  330,  331,  332,  333,  334,  335,  336
** ... 46 like lines cut
*Elset, elset=SET-9, generate
   1,  792,    1
*Nset, nset=SET-11
    9,   10,   11,   12,   13,   14,   15,   16,   17,   18,   19,   20,   21,   22,   23,   24
  553,  554,  555,  556,  557,  558,  559,  560,  561,  562,  563,  564,  565,  566,  567,  568
  569,  570,  571,  572,  573,  574,  575,  576,  577,  578,  579,  580,  581,  582,  583,  584
  585,  586,  587,  588,  589,  590,  591,  592,  593,  594,  595,  596,  597,  598,  599,  600
  601,  602,  603,  604,  605,  606,  607,  608,  609,  610,  611,  612,  613,  614,  615,  616
  617,  618,  619,  620,  621,  622,  623,  624,  625,  626,  627,  628,  629,  630,  631,  632
  633,  634,  635,  636,  637,  638,  639,  640,  641,  642,  643,  644,  645,  646,  647,  648
  649,  650,  651,  652,  653,  654,  655,  656,  657,  658,  659,  660,  661,  662,  663,  664
  665,  666,  667,  668,  669,  670,  671,  672,  673,  674,  675,  676,  677,  678,  679,  680
  681,  682,  683,  684,  685,  686,  687,  688,  689,  690,  691,  692,  693,  694,  695,  696
  697,  698,  699,  700,  701,  702,  703,  704,  705,  706,  707,  708,  709,  710,  711,  712
  713,  714,  715,  716,  717,  718,  719,  720,  721,  722,  723,  724,  725,  726,  727,  728
  729,  730,  731,  732,  733,  734,  735,  736,  737,  738,  739,  740,  741,  742,  743,  744
  745,  746,  747,  748,  749,  750, 1271, 1272, 1273, 1274, 1275, 1276, 1277, 1278, 1279, 1280
 1281, 1282, 1283, 1284, 1285, 1286, 1287, 1288, 1289, 1290, 1291, 1292, 1293, 1294, 1295, 1296
 1297, 1298, 1299, 1300, 1301, 1302, 1303, 1304, 1305, 1306, 1307, 1308, 1309, 1310, 1311, 1312
 1313, 1314, 1315, 1316, 1317, 1318, 1319, 1320, 1321, 1322, 1323, 1324, 1325, 1326, 1327, 1328
 1329, 1330, 1331, 1332, 1333, 1334, 1335, 1336, 1337, 1338, 1339, 1340, 1341, 1342, 1343, 1344
 1345, 1346, 1347, 1348, 1349, 1350, 1351, 1352, 1353, 1354, 1355, 1356, 1357, 1358, 1359, 1360
 1361, 1362, 1363, 1364, 1365, 1366, 1367, 1368, 1369, 1370, 1371, 1372, 1373, 1374, 1375, 1376
** ... 5 like lines cut
*Elset, elset=SET-11, generate
  793,  1086,     1
*Elset, elset=Set-4
 214, 215, 216, 217, 218, 219, 220, 221, 222, 223, 224, 225, 226, 227, 228, 229
 230, 231, 232, 233, 234, 235, 236, 237, 238, 239, 240, 241, 242, 243, 244, 245
 246, 247, 248, 249, 250, 251, 252, 253, 254, 255, 256, 257, 258, 259, 260, 261
 262, 263, 264, 265, 266, 267, 268, 269, 270, 271, 272, 273, 274, 275, 276, 277
 278, 279, 280, 281, 282, 283, 284, 285, 286, 287, 288, 289, 290, 291, 292, 293
 294, 295, 296, 297, 298, 299, 300, 301, 302, 303, 304, 305, 306, 307, 308, 309
 310, 311, 312, 313, 314, 315, 316, 317, 318, 319, 320, 321, 322, 323, 324, 325
 326, 327, 328, 329, 330, 331, 332, 333, 334, 335, 336, 337, 338, 339, 340, 341
 342, 343, 344, 345, 346, 347, 348, 349, 350, 351, 352, 353, 354, 355, 356, 357
 358, 359, 360, 361, 362, 363, 364, 365, 366, 367, 368, 369, 370, 371, 372, 373
 374, 375, 376, 377, 378, 379, 380, 381, 382, 383, 384, 385, 386, 387, 388, 389
 390, 391, 392, 393, 394, 395, 396, 610, 611, 612, 613, 614, 615, 616, 617, 618
 619, 620, 621, 622, 623, 624, 625, 626, 627, 628, 629, 630, 631, 632, 633, 634
 635, 636, 637, 638, 639, 640, 641, 642, 643, 644, 645, 646, 647, 648, 649, 650
 651, 652, 653, 654, 655, 656, 657, 658, 659, 660, 661, 662, 663, 664, 665, 666
 667, 668, 669, 670, 671, 672, 673, 674, 675, 676, 677, 678, 679, 680, 681, 682
 683, 684, 685, 686, 687, 688, 689, 690, 691, 692, 693, 694, 695, 696, 697, 698
 699, 700, 701, 702, 703, 704, 705, 706, 707, 708, 709, 710, 711, 712, 713, 714
 715, 716, 717, 718, 719, 720, 721, 722, 723, 724, 725, 726, 727, 728, 729, 730
 731, 732, 733, 734, 735, 736, 737, 738, 739, 740, 741, 742, 743, 744, 745, 746
 747, 748, 749, 750, 751, 752, 753, 754, 755, 756, 757, 758, 759, 760, 761, 762
 763, 764, 765, 766, 767, 768, 769, 770, 771, 772, 773, 774, 775, 776, 777, 778
 779, 780, 781, 782, 783, 784, 785, 786, 787, 788, 789, 790, 791, 792
*Elset, elset=Set-5, generate
 397,  609,    1
*Elset, elset=Set-6, generate
   1,  213,    1
** Section: ZZZJ_zong_8
*Shell Section, elset=Set-6, material=AL
2.55, 5
** Section: Section-3-SET-9
*Shell Section, elset=Set-4, material=AL, offset=SPOS
2.55, 5
** Section: ZZZJ_zong_0
*Shell Section, elset=Set-5, material=AL
2.52, 5
** Section: Section-4-SET-11
*Shell Section, elset=SET-11, material=AL, offset=SPOS
2.55, 5
*End Part
**  
*Part, name=JIAJU
*Node
      1,         100.,  -465.600006,           0.
      2,        -100.,  -465.600006,           0.
      3,        -100.,  -355.600006,           0.
      4,         100.,  -355.600006,           0.
      5,        -100.,  -465.600006,         20.5
      6,        -100.,  -355.600006,         20.5
      7,         100.,  -355.600006,         20.5
      8,         100.,  -465.600006,         20.5
      9,  -304.799988,  -405.600006,         20.5
     10,  -304.600006,  -355.600006,         20.5
     11,  -304.600006,  -355.600006,           0.
     12,  -304.799988,  -405.600006,           0.
     13,         100.,  -515.599976,         20.5
     14,         100.,  -515.599976,           0.
     15,        -100.,  -515.599976,         20.5
     16,        -100.,  -515.599976,           0.
     17,   304.799988,  -405.600006,         20.5
     18,   304.799988,  -405.600006,           0.
     19,   304.799988,  -355.600006,           0.
     20,   304.799988,  -355.600006,         20.5
** ... 4725 like lines cut
*Element, type=C3D8R
   1,  144,  993, 3073,  969,    1,   41,  741,   90
   2,  993,  994, 3074, 3073,   41,   42,  742,  741
   3,  994,  995, 3075, 3074,   42,   43,  743,  742
   4,  995,  996, 3076, 3075,   43,   44,  744,  743
   5,  996,  997, 3077, 3076,   44,   45,  745,  744
   6,  997,  998, 3078, 3077,   45,   46,  746,  745
   7,  998,  999, 3079, 3078,   46,   47,  747,  746
   8,  999, 1000, 3080, 3079,   47,   48,  748,  747
   9, 1000, 1001, 3081, 3080,   48,   49,  749,  748
  10, 1001, 1002, 3082, 3081,   49,   50,  750,  749
  11, 1002, 1003, 3083, 3082,   50,   51,  751,  750
  12, 1003, 1004, 3084, 3083,   51,   52,  752,  751
  13, 1004, 1005, 3085, 3084,   52,   53,  753,  752
  14, 1005, 1006, 3086, 3085,   53,   54,  754,  753
  15, 1006, 1007, 3087, 3086,   54,   55,  755,  754
  16, 1007, 1008, 3088, 3087,   55,   56,  756,  755
  17, 1008, 1009, 3089, 3088,   56,   57,  757,  756
  18, 1009, 1010, 3090, 3089,   57,   58,  758,  757
  19, 1010, 1011, 3091, 3090,   58,   59,  759,  758
  20, 1011,  147,  981, 3091,   59,    2,   60,  759
** ... 3100 like lines cut
*Nset, nset=JIAJU-REFPT_, internal
 4745,
*Nset, nset=SET-3, generate
    1,  4744,     1
*Elset, elset=SET-3, generate
    1,  3120,     1
*Nset, nset=JIAJU-SHANG
   21,   22,   23,   24,   34,   35,   39,   40,  391,  392,  393,  394,  395,  396,  397,  398
  399,  400,  401,  402,  403,  404,  405,  406,  407,  408,  409,  410,  411,  412,  413,  414
  415,  416,  417,  418,  419,  420,  421,  422,  423,  424,  425,  426,  427,  428,  429,  430
  431,  432,  563,  564,  611,  612,  613,  614,  615,  616,  617,  618,  619,  620,  621,  622
  623,  624,  625,  626,  627,  628,  629,  630,  631,  632,  633,  634,  635,  636,  637,  638
  639,  640,  641,  642,  643,  644,  645,  646,  647,  648,  689,  690,  691,  692,  693,  694
  695,  696,  697,  698,  699,  700,  701,  702,  703,  704,  705,  706,  707,  708,  709,  710
  711,  712,  713,  714,  715,  716,  717,  718,  719,  720,  721,  722,  723,  724,  725,  726
  727,  728, 1907, 1908, 1909, 1910, 1911, 1912, 1913, 1914, 1915, 1916, 1917, 1918, 1919, 1920
 1921, 1922, 1923, 1924, 1925, 1926, 1927, 1928, 1929, 1930, 1931, 1932, 1933, 1934, 1935, 1936
 1937, 1938, 1939, 1940, 1941, 1942, 1943, 1944, 2491, 2492, 2493, 2494, 2495, 2496, 2497, 2498
 2499, 2500, 2501, 2502, 2503, 2504, 2505, 2506, 2507, 2508, 2509, 2510, 2511, 2512, 2513, 2514
 2515, 2516, 2517, 2518, 2519, 2520, 2521, 2522, 2523, 2524, 2525, 2526, 2527, 2528, 2795, 2796
 2797, 2798, 2799, 2800, 2801, 2802, 2803, 2804, 2805, 2806, 2807, 2808, 2809, 2810, 2811, 2812
 2813, 2814, 2815, 2816, 2817, 2818, 2819, 2820, 2821, 2822, 2823, 2824, 2825, 2826, 2827, 2828
 2829, 2830, 2831, 2832
*Elset, elset=JIAJU-SHANG
 1561, 1562, 1563, 1564, 1565, 1566, 1567, 1568, 1569, 1570, 1571, 1572, 1573, 1574, 1575, 1576
 1577, 1578, 1579, 1580, 1581, 1582, 1583, 1584, 1585, 1586, 1587, 1588, 1589, 1590, 1591, 1592
 1593, 1594, 1595, 1596, 1597, 1598, 1599, 1600, 1601, 1602, 1603, 1604, 1605, 1606, 1607, 1608
 1609, 1610, 1611, 1612, 1613, 1614, 1615, 1616, 1617, 1618, 1619, 1620, 2287, 2294, 2301, 2308
 2315, 2322, 2329, 2336, 2343, 2350, 2357, 2364, 2371, 2378, 2385, 2392, 2399, 2406, 2413, 2420
 2427, 2434, 2441, 2448, 2455, 2462, 2469, 2476, 2483, 2490, 2497, 2504, 2511, 2518, 2525, 2532
 2539, 2546, 2553, 2560, 2567, 2574, 2581, 2588, 2595, 2602, 2609, 2616, 2623, 2630, 2637, 2644
 2651, 2658, 2665, 2672, 2679, 2686, 2693, 2700, 3061, 3062, 3063, 3064, 3065, 3066, 3067, 3068
 3069, 3070, 3071, 3072, 3073, 3074, 3075, 3076, 3077, 3078, 3079, 3080, 3081, 3082, 3083, 3084
 3085, 3086, 3087, 3088, 3089, 3090, 3091, 3092, 3093, 3094, 3095, 3096, 3097, 3098, 3099, 3100
 3101, 3102, 3103, 3104, 3105, 3106, 3107, 3108, 3109, 3110, 3111, 3112, 3113, 3114, 3115, 3116
 3117, 3118, 3119, 3120
*Nset, nset=JIAJU-XIA
    3,    4,    6,    7,   10,   11,   19,   20,   66,   67,   68,   69,   70,   71,   72,   73
   74,   75,   76,   77,   78,   79,   80,   81,   82,   83,   84,  116,  117,  118,  119,  120
  121,  122,  123,  124,  125,  126,  127,  128,  129,  130,  131,  132,  133,  134,  141,  142
  145,  146,  155,  156,  203,  204,  205,  206,  207,  208,  209,  210,  211,  212,  213,  214
  215,  216,  217,  218,  219,  220,  221,  222,  223,  224,  225,  226,  227,  228,  229,  230
  231,  232,  233,  234,  235,  236,  237,  238,  239,  240,  339,  340,  341,  342,  343,  344
  345,  346,  347,  348,  349,  350,  351,  352,  353,  354,  355,  356,  357,  358,  359,  360
  361,  362,  363,  364,  365,  366,  367,  368,  369,  370,  371,  372,  373,  374,  375,  376
  377,  378, 1031, 1032, 1033, 1034, 1035, 1036, 1037, 1038, 1039, 1040, 1041, 1042, 1043, 1044
 1045, 1046, 1047, 1048, 1049, 1050, 1051, 1052, 1053, 1054, 1055, 1056, 1057, 1058, 1059, 1060
 1061, 1062, 1063, 1064, 1065, 1066, 1067, 1068, 1119, 1120, 1121, 1122, 1123, 1124, 1125, 1126
 1127, 1128, 1129, 1130, 1131, 1132, 1133, 1134, 1135, 1136, 1137, 1138, 1139, 1140, 1141, 1142
 1143, 1144, 1145, 1146, 1147, 1148, 1149, 1150, 1151, 1152, 1153, 1154, 1155, 1156, 1629, 1630
 1631, 1632, 1633, 1634, 1635, 1636, 1637, 1638, 1639, 1640, 1641, 1642, 1643, 1644, 1645, 1646
 1647, 1648, 1649, 1650, 1651, 1652, 1653, 1654, 1655, 1656, 1657, 1658, 1659, 1660, 1661, 1662
 1663, 1664, 1665, 1666
*Elset, elset=JIAJU-XIA
  121,  122,  123,  124,  125,  126,  127,  128,  129,  130,  131,  132,  133,  134,  135,  136
  137,  138,  139,  140,  261,  262,  263,  264,  265,  266,  267,  268,  269,  270,  271,  272
  273,  274,  275,  276,  277,  278,  279,  280,  401,  402,  403,  404,  405,  406,  407,  408
  409,  410,  411,  412,  413,  414,  415,  416,  417,  418,  419,  420,  427,  434,  441,  448
  455,  462,  469,  476,  483,  490,  497,  504,  511,  518,  525,  532,  539,  546,  553,  560
  567,  574,  581,  588,  595,  602,  609,  616,  623,  630,  637,  644,  651,  658,  665,  672
  679,  686,  693,  700,  707,  714,  721,  728,  735,  742,  749,  756,  763,  770,  777,  784
  791,  798,  805,  812,  819,  826,  833,  840, 1501, 1502, 1503, 1504, 1505, 1506, 1507, 1508
 1509, 1510, 1511, 1512, 1513, 1514, 1515, 1516, 1517, 1518, 1519, 1520, 1521, 1522, 1523, 1524
 1525, 1526, 1527, 1528, 1529, 1530, 1531, 1532, 1533, 1534, 1535, 1536, 1537, 1538, 1539, 1540
 1541, 1542, 1543, 1544, 1545, 1546, 1547, 1548, 1549, 1550, 1551, 1552, 1553, 1554, 1555, 1556
 1557, 1558, 1559, 1560
*Nset, nset=JIAJU-S-LOAD
   29,   30,   31,   32,  503,  504,  513,  514,  519,  520,  521,  522,  523,  524,  525,  526
  527,  528,  529,  530,  531,  532,  533,  534,  535,  536,  537,  538,  539,  540,  541,  542
  543,  544,  545,  546,  547,  548,  549,  550,  551,  552,  553,  554,  555,  556, 2251, 2252
 2253, 2254, 2255, 2256, 2257, 2258, 2259, 2260, 2261, 2262, 2263, 2264, 2265, 2266, 2267, 2268
 2269, 2270, 2271, 2272, 2273, 2274, 2275, 2276, 2277, 2278, 2279, 2280, 2281, 2282, 2283, 2284
 2285, 2286, 2287, 2288
*Elset, elset=JIAJU-S-LOAD, generate
 1985,  2280,     5
*Nset, nset=JIAJU-X-LOAD
   13,   14,   15,   16,  245,  246,  255,  256,  261,  262,  263,  264,  265,  266,  267,  268
  269,  270,  271,  272,  273,  274,  275,  276,  277,  278,  279,  280,  281,  282,  283,  284
  285,  286,  287,  288,  289,  290,  291,  292,  293,  294,  295,  296,  297,  298, 1401, 1402
 1403, 1404, 1405, 1406, 1407, 1408, 1409, 1410, 1411, 1412, 1413, 1414, 1415, 1416, 1417, 1418
 1419, 1420, 1421, 1422, 1423, 1424, 1425, 1426, 1427, 1428, 1429, 1430, 1431, 1432, 1433, 1434
 1435, 1436, 1437, 1438
*Elset, elset=JIAJU-X-LOAD, generate
  845,  1140,     5
*Nset, nset=OUTPUT
 4745,
** Section: Section-1-SET-3
*Solid Section, elset=SET-3, material=AL
,
*End Part
**  
*Part, name=MENGPI2
*Node
      1,   160.481506,   217.800003, 0.0369560011
      2,   160.481506,   355.600006,  0.126059994
      3,  0.481494993,   355.600006, 0.0783779994
      4,   32.4000015,   217.800003, 0.0158680007
      5,  0.481494993,   217.800003, 0.00539720012
      6,   160.481506,           0., -0.0620820001
      7,   160.481506,   57.7999992, -0.0473770015
      8,   32.4000015,   57.7999992, -0.136720002
      9,  0.481494993,   57.7999992, -0.0748900026
     10,  0.481494993,           0., -0.0687209964
     11,   304.799988,   217.800003, 0.0986770019
     12,   304.799988,   355.600006,      0.17667
     13,   304.799988,   57.7999992, -0.0123849995
     14,   304.799988,           0., -0.0205569994
     15,  -152.399994,  -355.600006,  0.125670001
     16,  -152.399994,  -257.799988, 0.0609119982
     17,  -232.399994,  -177.800003, 0.0313000008
     18,  -304.799988,  -177.800003, 0.0200960003
     19,  -304.799988,  -355.600006,  0.113770001
     20,  -304.799988,           0., -0.0243510008
** ... 3960 like lines cut
*Element, type=S4R
   1,    1,   29,  570,   81
   2,   29,   30,  571,  570
   3,   30,   31,  572,  571
   4,   31,   32,  573,  572
   5,   32,   33,  574,  573
   6,   33,   34,  575,  574
   7,   34,   35,  576,  575
   8,   35,   36,  577,  576
   9,   36,   37,  578,  577
  10,   37,   38,  579,  578
  11,   38,   39,  580,  579
  12,   39,   40,  581,  580
  13,   40,   41,  582,  581
  14,   41,    2,   42,  582
  15,   81,  570,  583,   80
  16,  570,  571,  584,  583
  17,  571,  572,  585,  584
  18,  572,  573,  586,  585
  19,  573,  574,  587,  586
  20,  574,  575,  588,  587
** ... 3772 like lines cut
*Nset, nset=SET-1, generate
    1,  3980,     1
*Elset, elset=SET-1, generate
    1,  3792,     1
*Nset, nset=MENGPI2, generate
    1,  3980,     1
*Elset, elset=MENGPI2, generate
    1,  3792,     1
*Nset, nset=TOP
   2,   3,  12,  22,  42,  43,  44,  45,  46,  47,  48,  49,  50,  51,  52,  53
  54,  55,  56, 149, 150, 151, 152, 153, 154, 155, 156, 157, 158, 159, 160, 161
 326, 327, 328, 329, 330, 331, 332, 333, 334, 335, 336, 337, 338, 339, 340, 341
 342, 343, 344, 345, 346, 347, 348, 349, 350, 351, 352, 353
*Elset, elset=TOP
   14,   28,   42,   56,   70,   84,   98,  112,  126,  140,  154,  168,  182,  196,  210,  224
  503,  504,  505,  506,  507,  508,  509,  510,  511,  512,  513,  514,  515,  516, 2057, 2058
 2059, 2060, 2061, 2062, 2063, 2064, 2065, 2066, 2067, 2068, 2069, 2070, 2071, 2072, 2073, 2074
 2075, 2076, 2077, 2078, 2079, 2080, 2081, 2082, 2083, 2084, 2085
*Nset, nset=BOTTOM
  15,  19,  24,  25, 223, 224, 225, 226, 227, 228, 229, 230, 231, 232, 233, 234
 235, 422, 423, 424, 425, 426, 427, 428, 429, 430, 431, 432, 433, 434, 435, 436
 437, 438, 439, 440, 441, 442, 443, 444, 445, 446, 447, 448, 449, 450, 504, 505
 506, 507, 508, 509, 510, 511, 512, 513, 514, 515, 516
*Elset, elset=BOTTOM
  825,  826,  827,  828,  829,  830,  831,  981,  991, 1001, 1011, 1021, 1031, 1041, 3106, 3107
 3108, 3109, 3110, 3111, 3112, 3113, 3114, 3115, 3116, 3117, 3118, 3119, 3120, 3121, 3122, 3123
 3124, 3125, 3126, 3127, 3128, 3129, 3130, 3131, 3132, 3133, 3134, 3135, 3196, 3207, 3218, 3229
 3240, 3251, 3262, 3273, 3274, 3275, 3276, 3277, 3278, 3279
** Section: Section-5-SET-1
*Shell Section, elset=SET-1, material=AL
2.5, 5
*End Part
**  
*Part, name=WANGGE
*Node
      1, -0.023343211,   253.997101,          18.
      2, -0.0216780957,   217.800003,          18.
      3, -0.0186694004,   152.395508,          18.
      4, -0.0216780957,   217.800003,           0.
      5, -0.0186694004,   152.395508,           0.
      6, -0.023343211,   253.997101,           0.
      7,  -76.2125702,  -153.397644,          18.
      8,  -76.2125702,  -153.397644,           0.
      9,   -76.212616,  -152.402039,           0.
     10,   -76.212616,  -152.402039,          18.
     11,   -228.60527,  -153.453415,          18.
     12,   -228.60527,  -153.453415,           0.
     13,  -228.605331,  -152.402039,           0.
     14,  -228.605331,  -152.402039,          18.
     15,   228.618408,  -353.878296,          18.
     16,   228.618408,  -353.878296,           0.
     17,   228.613815,  -254.001022,           0.
     18,   228.613815,  -254.001022,          18.
     19,   228.609146,  -152.402039,           0.
     20,   228.609146,  -152.402039,          18.
** ... 5076 like lines cut
*Element, type=S4R
   1,    1,  165, 2709,  198
   2,  165,  166, 2710, 2709
   3,  166,  167, 2711, 2710
   4,  167,  168, 2712, 2711
   5,  168,  169, 2713, 2712
   6,  169,    2, 2714, 2713
   7,    2,  170, 2715, 2714
   8,  170,  171, 2716, 2715
   9,  171,  172, 2717, 2716
  10,  172,  173, 2718, 2717
  11,  173,  174, 2719, 2718
  12,  174,  175, 2720, 2719
  13,  175,  176, 2721, 2720
  14,  176,  177, 2722, 2721
  15,  177,  178, 2723, 2722
  16,  178,  179, 2724, 2723
  17,  179,    3,  180, 2724
  18,  198, 2709, 2725,  197
  19, 2709, 2710, 2726, 2725
  20, 2710, 2711, 2727, 2726
** ... 3853 like lines cut
*Nset, nset=SET-1, generate
    1,  5096,     1
*Elset, elset=SET-1, generate
    1,  3873,     1
*Elset, elset=Set-2
   55,   56,   57, 3034, 3035, 3036, 3037, 3038, 3039, 3040, 3041, 3042, 3043, 3044, 3045, 3046
 3047, 3048, 3049, 3050, 3051, 3052, 3053, 3054, 3055, 3056, 3057, 3058, 3059, 3060, 3061, 3062
 3063, 3064, 3065, 3066, 3067, 3068, 3069, 3070, 3071, 3072, 3073, 3074, 3075, 3076, 3077, 3078
 3079, 3080, 3081, 3082, 3083, 3084, 3085, 3086, 3087, 3088, 3089, 3090, 3091, 3092, 3093, 3094
 3095, 3096, 3097, 3098, 3099, 3100, 3101, 3102, 3103, 3104, 3105, 3106, 3107, 3108, 3109, 3110
 3111, 3112, 3113, 3114, 3115, 3116, 3117, 3118, 3119, 3120, 3121, 3122, 3123, 3124, 3125, 3126
 3127, 3128, 3129, 3130, 3131, 3132, 3133, 3134, 3135, 3136, 3137, 3138, 3139, 3140, 3141, 3142
 3143, 3144, 3145, 3146, 3147, 3148, 3149, 3150, 3151, 3152, 3153, 3154, 3155, 3156, 3157, 3158
 3159, 3160, 3161, 3162, 3163, 3164, 3165, 3166, 3167, 3168, 3169, 3170, 3171, 3172, 3173, 3174
 3175, 3176, 3177, 3178, 3179, 3180, 3181, 3182, 3183, 3184, 3185, 3186, 3187, 3188, 3189, 3190
 3191, 3192, 3193, 3194, 3195, 3196, 3197, 3198, 3199, 3200, 3201, 3202, 3203, 3204, 3205, 3206
 3207, 3208, 3209, 3210, 3211, 3212, 3213, 3214, 3215, 3216, 3217, 3218, 3219, 3220, 3221, 3222
 3223, 3224, 3225, 3226, 3227, 3228, 3229, 3230, 3231, 3232, 3233, 3234, 3235, 3236, 3237, 3238
 3239, 3240, 3241, 3242, 3243, 3244, 3245, 3246, 3247, 3248, 3249, 3250, 3251, 3252, 3253, 3254
 3255, 3256, 3257, 3258, 3259, 3260, 3261, 3262, 3263, 3264, 3265, 3266, 3267, 3268, 3269, 3270
 3271, 3272, 3273, 3274, 3275, 3276, 3277, 3278, 3279, 3280, 3281, 3282, 3283, 3284, 3285, 3286
 3287, 3288, 3769, 3770, 3771, 3772, 3773, 3774, 3775, 3776, 3777, 3778, 3779, 3780, 3781, 3782
 3783, 3784, 3785, 3786, 3787, 3788, 3789, 3790, 3791, 3792, 3793, 3794, 3795, 3796, 3797, 3798
 3799, 3800, 3801, 3802, 3803, 3804, 3805, 3806, 3807, 3808, 3809, 3810, 3811, 3812, 3813, 3814
 3815, 3816, 3817, 3818, 3819, 3820, 3821, 3822, 3823, 3824, 3825, 3826, 3827, 3828, 3829, 3830
 3831, 3832, 3833, 3834, 3835, 3836, 3837, 3838, 3839, 3840, 3841, 3842, 3843, 3844, 3845, 3846
*Elset, elset=Set-3
 2647, 2648, 2649, 2650, 2651, 2652, 2653, 2654, 2655, 2656, 2657, 2658, 2659, 2660, 2661, 2662
 2663, 2664, 2665, 2666, 2667, 2668, 2669, 2670, 2671, 2672, 2673, 2674, 2675, 2676, 2677, 2678
 2679, 2680, 2681, 2682, 2683, 2684, 2685, 2686, 2687, 2688, 2689, 2690, 2691, 2692, 2693, 2694
 2695, 2696, 2697, 2698, 2699, 2700, 2701, 2702, 2703, 2704, 2705, 2706, 2707, 2708, 2709, 2710
 2711, 2712, 2713, 2714, 2715, 2716, 2717, 2718, 2719, 2720, 2721, 2722, 2723, 2724, 2725, 2726
 2727, 2728, 2729, 2730, 2731, 2732, 2733, 2734, 2735, 2736, 2737, 2738, 2739, 2740, 2741, 2742
 2743, 2744, 2745, 2746, 2747, 2748, 2749, 2750, 2751, 2752, 2753, 2754, 2755, 2756, 2757, 2758
 2759, 2760, 2761, 2762, 2763, 2764, 2765, 2766, 2767, 2768, 2769, 2770, 2771, 2772, 2773, 2774
 2775, 2776, 2777, 2778, 2779, 2780, 2781, 2782, 2783, 2784, 2785, 2786, 2787, 2788, 2789, 2790
 2791, 2792, 2793, 2794, 2795, 2796, 2797, 2798, 2799, 2800, 2801, 2802, 2803, 2804, 2805, 2806
 2807, 2808, 2809, 2810, 2811, 2812, 2813, 2814, 2815, 2816, 2817, 2818, 2819, 2820, 2821, 2822
 2823, 2824, 2825, 2826, 2827, 2828, 2829, 2830, 2831, 2832, 2833, 2834, 2835, 2836, 2837, 2838
 2839, 2840, 2841, 2842, 2843, 2844, 2845, 2846, 2847, 2848, 2849, 2850, 2851, 2852, 2853, 2854
 2855, 2856, 2857, 2858, 2859, 2860, 2861, 2862, 2863, 2864, 2865, 2866, 2867, 2868, 2869, 2870
 2871, 2872, 2873, 2874, 3685, 3686, 3687, 3688, 3689, 3690, 3691, 3692, 3693, 3694, 3695, 3696
 3697, 3698, 3699, 3700, 3701, 3702, 3703, 3704, 3705, 3706, 3707, 3708, 3709, 3710, 3711, 3712
 3713, 3714, 3715, 3716, 3717, 3718, 3719, 3720, 3721, 3722, 3723, 3724, 3725, 3726, 3727, 3728
 3729, 3730, 3731, 3732
*Elset, elset=Set-4
   52,   53,   54, 2128, 2129, 2130, 2131, 2132, 2133, 2134, 2135, 2136, 2137, 2138, 2139, 2140
 2141, 2142, 2143, 2144, 2145, 2146, 2147, 2148, 2149, 2150, 2151, 2152, 2153, 2154, 2155, 2156
 2157, 2158, 2159, 2160, 2161, 2162, 2163, 2164, 2165, 2166, 2167, 2168, 2169, 2170, 2171, 2172
 2173, 2174, 2175, 2176, 2177, 2178, 2179, 2180, 2181, 2182, 2183, 2184, 2185, 2186, 2187, 2188
 2189, 2190, 2191, 2192, 2193, 2194, 2195, 2196, 2197, 2198, 2199, 2200, 2201, 2202, 2203, 2204
 2205, 2206, 2207, 2208, 2209, 2210, 2211, 2212, 2213, 2214, 2215, 2216, 2217, 2218, 2219, 2220
 2221, 2222, 2223, 2224, 2225, 2226, 2227, 2228, 2229, 2230, 2231, 2232, 2233, 2234, 2235, 2236
 2237, 2238, 2239, 2240, 2241, 2242, 2243, 2244, 2245, 2246, 2247, 2248, 2249, 2250, 2251, 2252
 2253, 2254, 2255, 2256, 2257, 2258, 2259, 2260, 2261, 2262, 2263, 2264, 2265, 2266, 2267, 2268
 2269, 2270, 2271, 2272, 2273, 2274, 2275, 2276, 2277, 2278, 2279, 2280, 2281, 2282, 2283, 2284
 2285, 2286, 2287, 2288, 2289, 2290, 2291, 2292, 2293, 2294, 2295, 2296, 2297, 2298, 2299, 2300
 2301, 2302, 2303, 2304, 2305, 2306, 2307, 2308, 2309, 2310, 2311, 2312, 2313, 2314, 2315, 2316
 2317, 2318, 2319, 2320, 2321, 2322, 2323, 2324, 2325, 2326, 2327, 2328, 2329, 2330, 2331, 2332
 2333, 2334, 2335, 2336, 2337, 2338, 2339, 2340, 2341, 2342, 2343, 2344, 2345, 2346, 2347, 2348
 2349, 2350, 2351, 2352, 2353, 2354, 2355, 2356, 2357, 2358, 2359, 2360, 2361, 2362, 2363, 2364
 2365, 2366, 2367, 2368, 2369, 2370, 2371, 2372, 2373, 2374, 2375, 2376, 2377, 2378, 2379, 2380
 2381, 2382, 2383, 2384, 2385, 2386, 2387, 2388, 2389, 2390, 2391, 2392, 2393, 2394, 2395, 2396
 2397, 2398, 2399, 2400, 2401, 2402, 2403, 2404, 2405, 2406, 2407, 2408, 2409, 2410, 2411, 2412
 2413, 2414, 2415, 2416, 2417, 2418, 2419, 2420, 2421, 2422, 2423, 2424, 2425, 2426, 2427, 2428
 2429, 2430, 2431, 2432, 2433, 2434, 2435, 2436, 2437, 2438, 2439, 2440, 2441, 2442, 2443, 2444
 2445, 2446, 2447, 2448, 2449, 2450, 2451, 2452, 2453, 2454, 2455, 2456, 2457, 2458, 2459, 2460
*Elset, elset=Set-5
    1,    2,    3,    4,    5,    6,    7,    8,    9,   10,   11,   12,   13,   14,   15,   16
   17,   18,   19,   20,   21,   22,   23,   24,   25,   26,   27,   28,   29,   30,   31,   32
   33,   34,   35,   36,   37,   38,   39,   40,   41,   42,   43,   44,   45,   46,   47,   48
   49,   50,   51, 1588, 1589, 1590, 1591, 1592, 1593, 1594, 1595, 1596, 1597, 1598, 1599, 1600
 1601, 1602, 1603, 1604, 1605, 1606, 1607, 1608, 1609, 1610, 1611, 1612, 1613, 1614, 1615, 1616
 1617, 1618, 1619, 1620, 1621, 1622, 1623, 1624, 1625, 1626, 1627, 1628, 1629, 1630, 1631, 1632
 1633, 1634, 1635, 1636, 1637, 1638, 1639, 1640, 1641, 1642, 1643, 1644, 1645, 1646, 1647, 1648
 1649, 1650, 1651, 1652, 1653, 1654, 1655, 1656, 1657, 1658, 1659, 1660, 1661, 1662, 1663, 1664
 1665, 1666, 1667, 1668, 1669, 1670, 1671, 1672, 1673, 1674, 1675, 1676, 1677, 1678, 1679, 1680
 1681, 1682, 1683, 1684, 1685, 1686, 1687, 1688, 1689, 1690, 1691, 1692, 1693, 1694, 1695, 1696
 1697, 1698, 1699, 1700, 1701, 1702, 1703, 1704, 1705, 1706, 1707, 1708, 1709, 1710, 1711, 1712
 1713, 1714, 1715, 1716, 1717, 1718, 1719, 1720, 1721, 1722, 1723, 1724, 1725, 1726, 1727, 1728
 1729, 1730, 1731, 1732, 1733, 1734, 1735, 1736, 1737, 1738, 1739, 1740, 1741, 1742, 1743, 1744
 1745, 1746, 1747, 1748, 1749, 1750, 1751, 1752, 1753, 1754, 1755, 1756, 1757, 1758, 1759, 1760
 1761, 1762, 1763, 1764, 1765, 1766, 1767, 1768, 1769, 1770, 1771, 1772, 1773, 1774, 1775, 1776
 1777, 1778, 1779, 1780, 1781, 1782, 1783, 1784, 1785, 1786, 1787, 1788, 1789, 1790, 1791, 1792
 1793, 1794, 1795, 1796, 1797, 1798, 1799, 1800, 1801, 1802, 1803, 1804, 1805, 1806, 1807, 1808
 1809, 1810, 1811, 1812, 1813, 1814, 1815, 1816, 1817, 1818, 1819, 1820, 1821, 1822, 1823, 1824
 1825, 1826, 1827, 1828, 1829, 1830, 1831, 1832, 1833, 1834, 1835, 1836, 1837, 1838, 1839, 1840
 1841, 1842, 1843, 1844, 1845, 1846, 1847, 1848, 1849, 1850, 1851, 1852, 1853, 1854, 1855, 1856
 1857, 1858, 1859, 1860, 1861, 1862, 1863, 1864, 1865, 1866, 1867, 1868, 1869, 1870, 1871, 1872
 1873, 1874, 1875, 1876, 1877, 1878, 1879, 1880, 1881, 1882, 1883, 1884, 1885, 1886, 1887, 1888
 1889, 1890, 1891, 1892, 1893
*Elset, elset=Set-6, generate
 1114,  1389,     1
*Elset, elset=Set-7, generate
 643,  918,    1
*Elset, elset=Set-8, generate
  58,  414,    1
*Elset, elset=Set-9
  415,  416,  417,  418,  419,  420,  421,  422,  423,  424,  425,  426,  427,  428,  429,  430
  431,  432,  433,  434,  435,  436,  437,  438,  439,  440,  441,  442,  443,  444,  445,  446
  447,  448,  449,  450,  451,  452,  453,  919,  920,  921,  922,  923,  924,  925,  926,  927
  928,  929,  930,  931,  932,  933,  934,  935,  936,  937,  938,  939,  940,  941,  942,  943
  944,  945,  946,  947,  948,  949,  950,  951,  952,  953,  954,  955,  956,  957, 1390, 1391
 1392, 1393, 1394, 1395, 1396, 1397, 1398, 1399, 1400, 1401, 1402, 1403, 1404, 1405, 1406, 1407
 1408, 1409, 1410, 1411, 1412, 1413, 1414, 1415, 1416, 1417, 1418, 1419, 1420, 1421, 1422, 1423
 1424, 1425, 1426, 1427, 1428, 1894, 1895, 1896, 1897, 1898, 1899, 1900, 1901, 1902, 1903, 1904
 1905, 1906, 1907, 1908, 1909, 1910, 1911, 1912, 1913, 1914, 1915, 1916, 1917, 1918, 1919, 1920
 1921, 1922, 1923, 1924, 1925, 1926, 1927, 1928, 1929, 1930, 1931, 1932, 2461, 2462, 2463, 2464
 2465, 2466, 2467, 2468, 2469, 2470, 2471, 2472, 2473, 2474, 2475, 2476, 2477, 2478, 2479, 2480
 2481, 2482, 2483, 2484, 2485, 2486, 2487, 2488, 2489, 2490, 2491, 2492, 2493, 2494, 2495, 2496
 2497, 2498, 2499, 2875, 2876, 2877, 2878, 2879, 2880, 2881, 2882, 2883, 2884, 2885, 2886, 2887
 2888, 2889, 2890, 2891, 2892, 2893, 2894, 2895, 2896, 2897, 2898, 2899, 2900, 2901, 2902, 2903
 2904, 2905, 2906, 2907, 2908, 2909, 2910, 2911, 2912, 2913, 3289, 3290, 3291, 3292, 3293, 3294
 3295, 3296, 3297, 3298, 3299, 3300, 3301, 3302, 3303, 3304, 3305, 3306, 3307, 3308, 3309, 3310
 3311, 3312, 3313, 3314, 3315, 3316, 3317, 3318, 3319, 3320, 3321, 3322, 3323, 3324, 3325, 3326
 3327, 3328, 3329, 3330, 3331, 3332, 3333, 3334, 3335, 3336, 3337, 3338, 3339, 3340, 3341, 3342
 3343, 3344, 3345, 3346, 3347, 3348, 3349, 3350, 3351, 3352, 3353, 3354, 3355, 3356, 3357, 3358
 3359, 3360
*Elset, elset=Set-10
  610,  611,  612,  613,  614,  615,  616,  617,  618,  619,  620,  621,  622,  623,  624,  625
  626,  627,  628,  629,  630,  631,  632,  633,  634,  635,  636,  637,  638,  639,  640,  641
  642, 1585, 1586, 1587, 2089, 2090, 2091, 2092, 2093, 2094, 2095, 2096, 2097, 2098, 2099, 2100
 2101, 2102, 2103, 2104, 2105, 2106, 2107, 2108, 2109, 2110, 2111, 2112, 2113, 2114, 2115, 2116
 2117, 2118, 2119, 2120, 2121, 2122, 2123, 2124, 2125, 2126, 2127, 2608, 2609, 2610, 2611, 2612
 2613, 2614, 2615, 2616, 2617, 2618, 2619, 2620, 2621, 2622, 2623, 2624, 2625, 2626, 2627, 2628
 2629, 2630, 2631, 2632, 2633, 2634, 2635, 2636, 2637, 2638, 2639, 2640, 2641, 2642, 2643, 2644
 2645, 2646, 2995, 2996, 2997, 2998, 2999, 3000, 3001, 3002, 3003, 3004, 3005, 3006, 3007, 3008
 3009, 3010, 3011, 3012, 3013, 3014, 3015, 3016, 3017, 3018, 3019, 3020, 3021, 3022, 3023, 3024
 3025, 3026, 3027, 3028, 3029, 3030, 3031, 3032, 3033, 3613, 3614, 3615, 3616, 3617, 3618, 3619
 3620, 3621, 3622, 3623, 3624, 3625, 3626, 3627, 3628, 3629, 3630, 3631, 3632, 3633, 3634, 3635
 3636, 3637, 3638, 3639, 3640, 3641, 3642, 3643, 3644, 3645, 3646, 3647, 3648, 3649, 3650, 3651
 3652, 3653, 3654, 3655, 3656, 3657, 3658, 3659, 3660, 3661, 3662, 3663, 3664, 3665, 3666, 3667
 3668, 3669, 3670, 3671, 3672, 3673, 3674, 3675, 3676, 3677, 3678, 3679, 3680, 3681, 3682, 3683
 3684,
*Elset, elset=Set-11
  454,  455,  456,  457,  458,  459,  460,  461,  462,  463,  464,  465,  466,  467,  468,  469
  470,  471,  472,  473,  474,  475,  476,  477,  478,  479,  480,  481,  482,  483,  484,  485
  486,  487,  488,  489,  490,  491,  492,  958,  959,  960,  961,  962,  963,  964,  965,  966
  967,  968,  969,  970,  971,  972,  973,  974,  975,  976,  977,  978,  979,  980,  981,  982
  983,  984,  985,  986,  987,  988,  989,  990,  991,  992,  993,  994,  995,  996, 1429, 1430
 1431, 1432, 1433, 1434, 1435, 1436, 1437, 1438, 1439, 1440, 1441, 1442, 1443, 1444, 1445, 1446
 1447, 1448, 1449, 1450, 1451, 1452, 1453, 1454, 1455, 1456, 1457, 1458, 1459, 1460, 1461, 1462
 1463, 1464, 1465, 1466, 1467, 1933, 1934, 1935, 1936, 1937, 1938, 1939, 1940, 1941, 1942, 1943
 1944, 1945, 1946, 1947, 1948, 1949, 1950, 1951, 1952, 1953, 1954, 1955, 1956, 1957, 1958, 1959
 1960, 1961, 1962, 1963, 1964, 1965, 1966, 1967, 1968, 1969, 1970, 1971, 2500, 2501, 2502, 2503
 2504, 2505, 2506, 2507, 2508, 2509, 2510, 2511, 2512, 2513, 2514, 2515, 2516, 2517, 2518, 2519
 2520, 2521, 2522, 2523, 2524, 2525, 2526, 2527, 2528, 2529, 2530, 2531, 2532, 2533, 2534, 2535
 2536, 2537, 2538, 2914, 2915, 2916, 2917, 2918, 2919, 2920, 2921, 2922, 2923, 2924, 2925, 2926
 2927, 2928, 2929, 2930, 2931, 2932, 2933, 2934, 2935, 2936, 2937, 2938, 2939, 2940, 2941, 2942
 2943, 2944, 2945, 2946, 2947, 2948, 2949, 2950, 2951, 2952, 3361, 3362, 3363, 3364, 3365, 3366
 3367, 3368, 3369, 3370, 3371, 3372, 3373, 3374, 3375, 3376, 3377, 3378, 3379, 3380, 3381, 3382
 3383, 3384, 3385, 3386, 3387, 3388, 3389, 3390, 3391, 3392, 3393, 3394, 3395, 3396, 3397, 3398
 3399, 3400, 3401, 3402, 3403, 3404, 3405, 3406, 3407, 3408, 3409, 3410, 3411, 3412, 3413, 3414
 3415, 3416, 3417, 3418, 3419, 3420, 3421, 3422, 3423, 3424, 3425, 3426, 3427, 3428, 3429, 3430
 3431, 3432
*Elset, elset=Set-12
  571,  572,  573,  574,  575,  576,  577,  578,  579,  580,  581,  582,  583,  584,  585,  586
  587,  588,  589,  590,  591,  592,  593,  594,  595,  596,  597,  598,  599,  600,  601,  602
  603,  604,  605,  606,  607,  608,  609, 1075, 1076, 1077, 1078, 1079, 1080, 1081, 1082, 1083
 1084, 1085, 1086, 1087, 1088, 1089, 1090, 1091, 1092, 1093, 1094, 1095, 1096, 1097, 1098, 1099
 1100, 1101, 1102, 1103, 1104, 1105, 1106, 1107, 1108, 1109, 1110, 1111, 1112, 1113, 1546, 1547
 1548, 1549, 1550, 1551, 1552, 1553, 1554, 1555, 1556, 1557, 1558, 1559, 1560, 1561, 1562, 1563
 1564, 1565, 1566, 1567, 1568, 1569, 1570, 1571, 1572, 1573, 1574, 1575, 1576, 1577, 1578, 1579
 1580, 1581, 1582, 1583, 1584, 2050, 2051, 2052, 2053, 2054, 2055, 2056, 2057, 2058, 2059, 2060
 2061, 2062, 2063, 2064, 2065, 2066, 2067, 2068, 2069, 2070, 2071, 2072, 2073, 2074, 2075, 2076
 2077, 2078, 2079, 2080, 2081, 2082, 2083, 2084, 2085, 2086, 2087, 2088, 2569, 2570, 2571, 2572
 2573, 2574, 2575, 2576, 2577, 2578, 2579, 2580, 2581, 2582, 2583, 2584, 2585, 2586, 2587, 2588
 2589, 2590, 2591, 2592, 2593, 2594, 2595, 2596, 2597, 2598, 2599, 2600, 2601, 2602, 2603, 2604
 2605, 2606, 2607, 2956, 2957, 2958, 2959, 2960, 2961, 2962, 2963, 2964, 2965, 2966, 2967, 2968
 2969, 2970, 2971, 2972, 2973, 2974, 2975, 2976, 2977, 2978, 2979, 2980, 2981, 2982, 2983, 2984
 2985, 2986, 2987, 2988, 2989, 2990, 2991, 2992, 2993, 2994, 3541, 3542, 3543, 3544, 3545, 3546
 3547, 3548, 3549, 3550, 3551, 3552, 3553, 3554, 3555, 3556, 3557, 3558, 3559, 3560, 3561, 3562
 3563, 3564, 3565, 3566, 3567, 3568, 3569, 3570, 3571, 3572, 3573, 3574, 3575, 3576, 3577, 3578
 3579, 3580, 3581, 3582, 3583, 3584, 3585, 3586, 3587, 3588, 3589, 3590, 3591, 3592, 3593, 3594
 3595, 3596, 3597, 3598, 3599, 3600, 3601, 3602, 3603, 3604, 3605, 3606, 3607, 3608, 3609, 3610
 3611, 3612
*Elset, elset=Set-13
  493,  494,  495,  496,  497,  498,  499,  500,  501,  502,  503,  504,  505,  506,  507,  508
  509,  510,  511,  512,  513,  514,  515,  516,  517,  518,  519,  520,  521,  522,  523,  524
  525,  526,  527,  528,  529,  530,  531,  997,  998,  999, 1000, 1001, 1002, 1003, 1004, 1005
 1006, 1007, 1008, 1009, 1010, 1011, 1012, 1013, 1014, 1015, 1016, 1017, 1018, 1019, 1020, 1021
 1022, 1023, 1024, 1025, 1026, 1027, 1028, 1029, 1030, 1031, 1032, 1033, 1034, 1035, 1468, 1469
 1470, 1471, 1472, 1473, 1474, 1475, 1476, 1477, 1478, 1479, 1480, 1481, 1482, 1483, 1484, 1485
 1486, 1487, 1488, 1489, 1490, 1491, 1492, 1493, 1494, 1495, 1496, 1497, 1498, 1499, 1500, 1501
 1502, 1503, 1504, 1505, 1506, 1972, 1973, 1974, 1975, 1976, 1977, 1978, 1979, 1980, 1981, 1982
 1983, 1984, 1985, 1986, 1987, 1988, 1989, 1990, 1991, 1992, 1993, 1994, 1995, 1996, 1997, 1998
 1999, 2000, 2001, 2002, 2003, 2004, 2005, 2006, 2007, 2008, 2009, 2010, 2539, 2540, 2541, 2953
 2954, 2955, 3433, 3434, 3435, 3436, 3437, 3438, 3439, 3440, 3441, 3442, 3443, 3444, 3445, 3446
 3447, 3448, 3449, 3450, 3451, 3452, 3453, 3454, 3455, 3456, 3457, 3458, 3459, 3460, 3461, 3462
 3463, 3464, 3465, 3466, 3467, 3468, 3469, 3470, 3471, 3472, 3473, 3474, 3475, 3476, 3477, 3478
 3479, 3480, 3481, 3482, 3483, 3484, 3485, 3486, 3487, 3488, 3489, 3490, 3491, 3492, 3493, 3494
 3495, 3496, 3497, 3498, 3499, 3500, 3501, 3502, 3503, 3504
*Elset, elset=Set-14
  532,  533,  534,  535,  536,  537,  538,  539,  540,  541,  542,  543,  544,  545,  546,  547
  548,  549,  550,  551,  552,  553,  554,  555,  556,  557,  558,  559,  560,  561,  562,  563
  564,  565,  566,  567,  568,  569,  570, 1036, 1037, 1038, 1039, 1040, 1041, 1042, 1043, 1044
 1045, 1046, 1047, 1048, 1049, 1050, 1051, 1052, 1053, 1054, 1055, 1056, 1057, 1058, 1059, 1060
 1061, 1062, 1063, 1064, 1065, 1066, 1067, 1068, 1069, 1070, 1071, 1072, 1073, 1074, 1507, 1508
 1509, 1510, 1511, 1512, 1513, 1514, 1515, 1516, 1517, 1518, 1519, 1520, 1521, 1522, 1523, 1524
 1525, 1526, 1527, 1528, 1529, 1530, 1531, 1532, 1533, 1534, 1535, 1536, 1537, 1538, 1539, 1540
 1541, 1542, 1543, 1544, 1545, 2011, 2012, 2013, 2014, 2015, 2016, 2017, 2018, 2019, 2020, 2021
 2022, 2023, 2024, 2025, 2026, 2027, 2028, 2029, 2030, 2031, 2032, 2033, 2034, 2035, 2036, 2037
 2038, 2039, 2040, 2041, 2042, 2043, 2044, 2045, 2046, 2047, 2048, 2049, 2542, 2543, 2544, 2545
 2546, 2547, 2548, 2549, 2550, 2551, 2552, 2553, 2554, 2555, 2556, 2557, 2558, 2559, 2560, 2561
 2562, 2563, 2564, 2565, 2566, 2567, 2568, 3505, 3506, 3507, 3508, 3509, 3510, 3511, 3512, 3513
 3514, 3515, 3516, 3517, 3518, 3519, 3520, 3521, 3522, 3523, 3524, 3525, 3526, 3527, 3528, 3529
 3530, 3531, 3532, 3533, 3534, 3535, 3536, 3537, 3538, 3539, 3540, 3733, 3734, 3735, 3736, 3737
 3738, 3739, 3740, 3741, 3742, 3743, 3744, 3745, 3746, 3747, 3748, 3749, 3750, 3751, 3752, 3753
 3754, 3755, 3756, 3757, 3758, 3759, 3760, 3761, 3762, 3763, 3764, 3765, 3766, 3767, 3768, 3847
 3848, 3849, 3850, 3851, 3852, 3853, 3854, 3855, 3856, 3857, 3858, 3859, 3860, 3861, 3862, 3863
 3864, 3865, 3866, 3867, 3868, 3869, 3870, 3871, 3872, 3873
** Section: ZZZJ_zong_4
*Shell Section, elset=Set-5, material=AL
2.59, 5
** Section: ZZZJ_zong_3
*Shell Section, elset=Set-4, material=AL
2.59, 5
** Section: ZZZJ_zong_1
*Shell Section, elset=Set-2, material=AL
2.59, 5
** Section: ZZZJ_zong_7
*Shell Section, elset=Set-8, material=AL
2.61, 5
** Section: ZZZJ_heng_1
*Shell Section, elset=Set-9, material=AL
2.57, 5
** Section: ZZZJ_heng_3
*Shell Section, elset=Set-11, material=AL
2.59, 5
** Section: ZZZJ_heng_5
*Shell Section, elset=Set-13, material=AL
2.61, 5
** Section: ZZZJ_heng_6
*Shell Section, elset=Set-14, material=AL
2.55, 5
** Section: ZZZJ_heng_4
*Shell Section, elset=Set-12, material=AL
2.59, 5
** Section: ZZZJ_heng_2
*Shell Section, elset=Set-10, material=AL
2.53, 5
** Section: ZZZJ_zong_6
*Shell Section, elset=Set-7, material=AL
2.58, 5
** Section: ZZZJ_zong_5
*Shell Section, elset=Set-6, material=AL
2.6, 5
** Section: ZZZJ_zong_2
*Shell Section, elset=Set-3, material=AL
2.61, 5
*End Part
**  
**
** ASSEMBLY
**
*Assembly, name=Assembly
**  
*Instance, name=MENGPI2-1, part=MENGPI2
          0.,           0.,        -1.25
*End Instance
**  
*Instance, name=JIAJU-1, part=JIAJU
          0.,           0.,         -2.5
*End Instance
**  
*Instance, name=BIAN-1, part=BIAN
          0.,           0.,         -2.5
*End Instance
**  
*Instance, name=WANGGE-1, part=WANGGE
*End Instance
**  
*Node
      1,           0.,   515.599976,           9.
*Nset, nset=BAN_DOWN, instance=MENGPI2-1
 24,
*Nset, nset=BAN_UP, instance=MENGPI2-1
 3,
*Nset, nset=BIAN_DI, instance=BIAN-1
   3,   4,   6,   8,   9,  12,  14,  15,  19,  20,  23,  24,  97,  98,  99, 100
 101, 102, 103, 104, 105, 106, 107, 108, 109, 110, 111, 112, 113, 114, 115, 116
 117, 118, 119, 120, 121, 122, 123, 124, 125, 126, 127, 128, 129, 130, 131, 132
 133, 134, 135, 136, 137, 138, 139, 140, 141, 142, 143, 144, 145, 146, 147, 148
 149, 150, 151, 152, 153, 154, 155, 156, 157, 158, 159, 160, 161, 162, 163, 164
 165, 166, 231, 232, 233, 234, 235, 236, 237, 238, 239, 240, 241, 242, 243, 244
 245, 246, 247, 248, 249, 250, 251, 252, 253, 254, 255, 256, 257, 258, 259, 260
 261, 262, 263, 264, 265, 266, 267, 268, 269, 270, 271, 272, 273, 274, 275, 276
 277, 278, 279, 280, 281, 282, 283, 284, 285, 286, 287, 288, 289, 290, 363, 364
 365, 366, 367, 368, 369, 370, 371, 372, 373, 374, 375, 376, 377, 378, 379, 380
 381, 382, 383, 384, 385, 386, 387, 388, 389, 390, 391, 392, 393, 394, 395, 396
 397, 398, 399, 400, 401, 402, 403, 404, 405, 406, 407, 408, 409, 410, 411, 412
 413, 414, 415, 416, 417, 418, 419, 420, 421, 422, 423, 424, 425, 426, 427, 428
 429, 430, 431, 432, 493, 494, 495, 496, 497, 498, 499, 500, 501, 502, 503, 504
 505, 506, 507, 508, 509, 510, 511, 512, 513, 514, 515, 516, 517, 518, 519, 520
 521, 522, 523, 524, 525, 526, 527, 528, 529, 530, 531, 532, 533, 534, 535, 536
 537, 538, 539, 540, 541, 542, 543, 544, 545, 546, 547, 548, 549, 550, 551, 552
 581, 582, 583, 584, 585, 586, 587, 588, 589, 590, 591, 592, 593, 594, 595, 596
 597, 598, 599, 600, 601, 602, 603, 604, 605, 606, 607, 608, 609, 610, 611, 612
 613, 614, 615, 616, 617, 618, 619, 620, 621, 622, 623, 624, 625, 626, 627, 628
 655, 656, 678, 679, 680, 681, 682, 683, 684, 685, 686, 687, 688, 689, 690, 691
 692, 699, 700, 715, 716, 717, 718, 719, 720, 721, 722, 723, 724, 725, 726, 727
 728, 729, 730, 731, 732, 733, 734, 735, 736, 737, 738
*Elset, elset=BIAN_DI, instance=BIAN-1
  143,  144,  145,  146,  147,  148,  149,  150,  151,  152,  153,  154,  155,  156,  157,  158
  159,  160,  161,  162,  163,  164,  165,  166,  167,  168,  169,  170,  171,  172,  173,  174
  175,  176,  177,  178,  179,  180,  181,  182,  183,  184,  185,  186,  187,  188,  189,  190
  191,  192,  193,  194,  195,  196,  197,  198,  199,  200,  201,  202,  203,  204,  205,  206
  207,  208,  209,  210,  211,  212,  213,  336,  337,  338,  339,  340,  341,  342,  343,  344
  345,  346,  347,  348,  349,  350,  351,  352,  353,  354,  355,  356,  357,  358,  359,  360
  361,  362,  363,  364,  365,  366,  367,  368,  369,  370,  371,  372,  373,  374,  375,  376
  377,  378,  379,  380,  381,  382,  383,  384,  385,  386,  387,  388,  389,  390,  391,  392
  393,  394,  395,  396,  539,  540,  541,  542,  543,  544,  545,  546,  547,  548,  549,  550
  551,  552,  553,  554,  555,  556,  557,  558,  559,  560,  561,  562,  563,  564,  565,  566
  567,  568,  569,  570,  571,  572,  573,  574,  575,  576,  577,  578,  579,  580,  581,  582
  583,  584,  585,  586,  587,  588,  589,  590,  591,  592,  593,  594,  595,  596,  597,  598
  599,  600,  601,  602,  603,  604,  605,  606,  607,  608,  609,  732,  733,  734,  735,  736
  737,  738,  739,  740,  741,  742,  743,  744,  745,  746,  747,  748,  749,  750,  751,  752
  753,  754,  755,  756,  757,  758,  759,  760,  761,  762,  763,  764,  765,  766,  767,  768
  769,  770,  771,  772,  773,  774,  775,  776,  777,  778,  779,  780,  781,  782,  783,  784
  785,  786,  787,  788,  789,  790,  791,  792,  793,  796,  799,  802,  805,  808,  811,  814
  817,  820,  823,  826,  829,  832,  835,  838,  841,  844,  847,  850,  853,  856,  859,  862
  865,  870,  873,  876,  879,  882,  885,  888,  891,  894,  897,  900,  903,  906,  909,  912
  915,  918,  921,  924,  927,  930,  933,  936,  939,  942,  945,  948,  951,  984,  985,  986
  987,  988,  989,  990,  991,  992,  993,  994,  995,  996,  997,  998,  999, 1006, 1007, 1008
 1009, 1012, 1015, 1018, 1021, 1024, 1027, 1030, 1033, 1036, 1039, 1042, 1045, 1050, 1053, 1056
 1059, 1062, 1065, 1068, 1071, 1074, 1077, 1080, 1083, 1086
*Nset, nset=MENGPICE, instance=JIAJU-1
    3,    4,    6,    7,   10,   11,   19,   20,   21,   22,   23,   24,   34,   35,   39,   40
   66,   67,   68,   69,   70,   71,   72,   73,   74,   75,   76,   77,   78,   79,   80,   81
   82,   83,   84,  116,  117,  118,  119,  120,  121,  122,  123,  124,  125,  126,  127,  128
  129,  130,  131,  132,  133,  134,  141,  142,  145,  146,  155,  156,  203,  204,  205,  206
  207,  208,  209,  210,  211,  212,  213,  214,  215,  216,  217,  218,  219,  220,  221,  222
  223,  224,  225,  226,  227,  228,  229,  230,  231,  232,  233,  234,  235,  236,  237,  238
  239,  240,  339,  340,  341,  342,  343,  344,  345,  346,  347,  348,  349,  350,  351,  352
  353,  354,  355,  356,  357,  358,  359,  360,  361,  362,  363,  364,  365,  366,  367,  368
  369,  370,  371,  372,  373,  374,  375,  376,  377,  378,  391,  392,  393,  394,  395,  396
  397,  398,  399,  400,  401,  402,  403,  404,  405,  406,  407,  408,  409,  410,  411,  412
  413,  414,  415,  416,  417,  418,  419,  420,  421,  422,  423,  424,  425,  426,  427,  428
  429,  430,  431,  432,  563,  564,  611,  612,  613,  614,  615,  616,  617,  618,  619,  620
  621,  622,  623,  624,  625,  626,  627,  628,  629,  630,  631,  632,  633,  634,  635,  636
  637,  638,  639,  640,  641,  642,  643,  644,  645,  646,  647,  648,  689,  690,  691,  692
  693,  694,  695,  696,  697,  698,  699,  700,  701,  702,  703,  704,  705,  706,  707,  708
  709,  710,  711,  712,  713,  714,  715,  716,  717,  718,  719,  720,  721,  722,  723,  724
  725,  726,  727,  728, 1031, 1032, 1033, 1034, 1035, 1036, 1037, 1038, 1039, 1040, 1041, 1042
 1043, 1044, 1045, 1046, 1047, 1048, 1049, 1050, 1051, 1052, 1053, 1054, 1055, 1056, 1057, 1058
 1059, 1060, 1061, 1062, 1063, 1064, 1065, 1066, 1067, 1068, 1119, 1120, 1121, 1122, 1123, 1124
 1125, 1126, 1127, 1128, 1129, 1130, 1131, 1132, 1133, 1134, 1135, 1136, 1137, 1138, 1139, 1140
** ... 11 like lines cut
*Nset, nset=MENGPICE, instance=BIAN-1
    1,    2,    3,    4,    5,    6,    7,    8,   25,   26,   27,   28,   29,   30,   31,   32
   33,   34,   35,   36,   37,   38,   39,   40,   41,   42,   43,   44,   45,   46,   47,   48
   49,   50,   51,   52,   53,   54,   55,   56,   57,   58,   59,   60,   61,   62,   63,   64
   65,   66,   67,   68,   69,   70,   71,   72,   73,   74,   75,   76,   77,   78,   79,   80
   81,   82,   83,   84,   85,   86,   87,   88,   89,   90,   91,   92,   93,   94,   95,   96
   97,   98,   99,  100,  101,  102,  103,  104,  105,  106,  107,  108,  109,  110,  111,  112
  113,  114,  115,  116,  117,  118,  119,  120,  121,  122,  123,  124,  125,  126,  127,  128
  129,  130,  131,  132,  133,  134,  135,  136,  137,  138,  139,  140,  141,  142,  143,  144
  145,  146,  147,  148,  149,  150,  151,  152,  153,  154,  155,  156,  157,  158,  159,  160
  161,  162,  163,  164,  165,  166,  167,  168,  229,  230,  291,  292,  293,  294,  295,  296
  297,  298,  299,  300,  301,  302,  303,  304,  305,  306,  307,  308,  309,  310,  311,  312
  313,  314,  315,  316,  317,  318,  319,  320,  321,  322,  323,  324,  325,  326,  327,  328
  329,  330,  331,  332,  333,  334,  335,  336,  337,  338,  339,  340,  341,  342,  343,  344
  345,  346,  347,  348,  349,  350,  351,  352,  353,  354,  355,  356,  357,  358,  359,  360
  361,  362,  363,  364,  365,  366,  367,  368,  369,  370,  371,  372,  373,  374,  375,  376
  377,  378,  379,  380,  381,  382,  383,  384,  385,  386,  387,  388,  389,  390,  391,  392
  393,  394,  395,  396,  397,  398,  399,  400,  401,  402,  403,  404,  405,  406,  407,  408
  409,  410,  411,  412,  413,  414,  415,  416,  417,  418,  419,  420,  421,  422,  423,  424
  425,  426,  427,  428,  429,  430,  431,  432,  751,  752,  753,  754,  755,  756,  757,  758
  759,  760,  761,  762,  763,  764,  765,  766,  767,  768,  769,  770,  771,  772,  773,  774
** ... 16 like lines cut
*Elset, elset=MENGPICE, instance=JIAJU-1
  121,  122,  123,  124,  125,  126,  127,  128,  129,  130,  131,  132,  133,  134,  135,  136
  137,  138,  139,  140,  261,  262,  263,  264,  265,  266,  267,  268,  269,  270,  271,  272
  273,  274,  275,  276,  277,  278,  279,  280,  401,  402,  403,  404,  405,  406,  407,  408
  409,  410,  411,  412,  413,  414,  415,  416,  417,  418,  419,  420,  427,  434,  441,  448
  455,  462,  469,  476,  483,  490,  497,  504,  511,  518,  525,  532,  539,  546,  553,  560
  567,  574,  581,  588,  595,  602,  609,  616,  623,  630,  637,  644,  651,  658,  665,  672
  679,  686,  693,  700,  707,  714,  721,  728,  735,  742,  749,  756,  763,  770,  777,  784
  791,  798,  805,  812,  819,  826,  833,  840, 1501, 1502, 1503, 1504, 1505, 1506, 1507, 1508
 1509, 1510, 1511, 1512, 1513, 1514, 1515, 1516, 1517, 1518, 1519, 1520, 1521, 1522, 1523, 1524
 1525, 1526, 1527, 1528, 1529, 1530, 1531, 1532, 1533, 1534, 1535, 1536, 1537, 1538, 1539, 1540
 1541, 1542, 1543, 1544, 1545, 1546, 1547, 1548, 1549, 1550, 1551, 1552, 1553, 1554, 1555, 1556
 1557, 1558, 1559, 1560, 1561, 1562, 1563, 1564, 1565, 1566, 1567, 1568, 1569, 1570, 1571, 1572
 1573, 1574, 1575, 1576, 1577, 1578, 1579, 1580, 1581, 1582, 1583, 1584, 1585, 1586, 1587, 1588
 1589, 1590, 1591, 1592, 1593, 1594, 1595, 1596, 1597, 1598, 1599, 1600, 1601, 1602, 1603, 1604
 1605, 1606, 1607, 1608, 1609, 1610, 1611, 1612, 1613, 1614, 1615, 1616, 1617, 1618, 1619, 1620
 2287, 2294, 2301, 2308, 2315, 2322, 2329, 2336, 2343, 2350, 2357, 2364, 2371, 2378, 2385, 2392
 2399, 2406, 2413, 2420, 2427, 2434, 2441, 2448, 2455, 2462, 2469, 2476, 2483, 2490, 2497, 2504
 2511, 2518, 2525, 2532, 2539, 2546, 2553, 2560, 2567, 2574, 2581, 2588, 2595, 2602, 2609, 2616
 2623, 2630, 2637, 2644, 2651, 2658, 2665, 2672, 2679, 2686, 2693, 2700, 3061, 3062, 3063, 3064
 3065, 3066, 3067, 3068, 3069, 3070, 3071, 3072, 3073, 3074, 3075, 3076, 3077, 3078, 3079, 3080
 3081, 3082, 3083, 3084, 3085, 3086, 3087, 3088, 3089, 3090, 3091, 3092, 3093, 3094, 3095, 3096
 3097, 3098, 3099, 3100, 3101, 3102, 3103, 3104, 3105, 3106, 3107, 3108, 3109, 3110, 3111, 3112
 3113, 3114, 3115, 3116, 3117, 3118, 3119, 3120
*Elset, elset=MENGPICE, instance=BIAN-1
   1,   2,   3,   4,   5,   6,   7,   8,   9,  10,  11,  12,  13,  14,  15,  16
  17,  18,  19,  20,  21,  22,  23,  24,  25,  26,  27,  28,  29,  30,  31,  32
  33,  34,  35,  36,  37,  38,  39,  40,  41,  42,  43,  44,  45,  46,  47,  48
  49,  50,  51,  52,  53,  54,  55,  56,  57,  58,  59,  60,  61,  62,  63,  64
  65,  66,  67,  68,  69,  70,  71,  72,  73,  74,  75,  76,  77,  78,  79,  80
  81,  82,  83,  84,  85,  86,  87,  88,  89,  90,  91,  92,  93,  94,  95,  96
  97,  98,  99, 100, 101, 102, 103, 104, 105, 106, 107, 108, 109, 110, 111, 112
 113, 114, 115, 116, 117, 118, 119, 120, 121, 122, 123, 124, 125, 126, 127, 128
 129, 130, 131, 132, 133, 134, 135, 136, 137, 138, 139, 140, 141, 142, 143, 144
 145, 146, 147, 148, 149, 150, 151, 152, 153, 154, 155, 156, 157, 158, 159, 160
 161, 162, 163, 164, 165, 166, 167, 168, 169, 170, 171, 172, 173, 174, 175, 176
 177, 178, 179, 180, 181, 182, 183, 184, 185, 186, 187, 188, 189, 190, 191, 192
 193, 194, 195, 196, 197, 198, 199, 200, 201, 202, 203, 204, 205, 206, 207, 208
 209, 210, 211, 212, 213, 397, 398, 399, 400, 401, 402, 403, 404, 405, 406, 407
 408, 409, 410, 411, 412, 413, 414, 415, 416, 417, 418, 419, 420, 421, 422, 423
 424, 425, 426, 427, 428, 429, 430, 431, 432, 433, 434, 435, 436, 437, 438, 439
 440, 441, 442, 443, 444, 445, 446, 447, 448, 449, 450, 451, 452, 453, 454, 455
 456, 457, 458, 459, 460, 461, 462, 463, 464, 465, 466, 467, 468, 469, 470, 471
 472, 473, 474, 475, 476, 477, 478, 479, 480, 481, 482, 483, 484, 485, 486, 487
 488, 489, 490, 491, 492, 493, 494, 495, 496, 497, 498, 499, 500, 501, 502, 503
** ... 7 like lines cut
*Nset, nset=MENGPI_CRICLE_IN, instance=BIAN-1
    9,   10,   11,   12,   13,   14,   15,   16,   17,   18,   19,   20,   21,   22,   23,   24
  553,  554,  555,  556,  557,  558,  559,  560,  561,  562,  563,  564,  565,  566,  567,  568
  569,  570,  571,  572,  573,  574,  575,  576,  577,  578,  579,  580,  581,  582,  583,  584
  585,  586,  587,  588,  589,  590,  591,  592,  593,  594,  595,  596,  597,  598,  599,  600
  601,  602,  603,  604,  605,  606,  607,  608,  609,  610,  611,  612,  613,  614,  615,  616
  617,  618,  619,  620,  621,  622,  623,  624,  625,  626,  627,  628,  629,  630,  631,  632
  633,  634,  635,  636,  637,  638,  639,  640,  641,  642,  643,  644,  645,  646,  647,  648
  649,  650,  651,  652,  653,  654,  655,  656,  657,  658,  659,  660,  661,  662,  663,  664
  665,  666,  667,  668,  669,  670,  671,  672,  673,  674,  675,  676,  677,  678,  679,  680
  681,  682,  683,  684,  685,  686,  687,  688,  689,  690,  691,  692,  693,  694,  695,  696
  697,  698,  699,  700,  701,  702,  703,  704,  705,  706,  707,  708,  709,  710,  711,  712
  713,  714,  715,  716,  717,  718,  719,  720,  721,  722,  723,  724,  725,  726,  727,  728
  729,  730,  731,  732,  733,  734,  735,  736,  737,  738,  739,  740,  741,  742,  743,  744
  745,  746,  747,  748,  749,  750, 1271, 1272, 1273, 1274, 1275, 1276, 1277, 1278, 1279, 1280
 1281, 1282, 1283, 1284, 1285, 1286, 1287, 1288, 1289, 1290, 1291, 1292, 1293, 1294, 1295, 1296
 1297, 1298, 1299, 1300, 1301, 1302, 1303, 1304, 1305, 1306, 1307, 1308, 1309, 1310, 1311, 1312
 1313, 1314, 1315, 1316, 1317, 1318, 1319, 1320, 1321, 1322, 1323, 1324, 1325, 1326, 1327, 1328
 1329, 1330, 1331, 1332, 1333, 1334, 1335, 1336, 1337, 1338, 1339, 1340, 1341, 1342, 1343, 1344
 1345, 1346, 1347, 1348, 1349, 1350, 1351, 1352, 1353, 1354, 1355, 1356, 1357, 1358, 1359, 1360
 1361, 1362, 1363, 1364, 1365, 1366, 1367, 1368, 1369, 1370, 1371, 1372, 1373, 1374, 1375, 1376
** ... 5 like lines cut
*Elset, elset=MENGPI_CRICLE_IN, instance=BIAN-1, generate
  793,  1086,     1
*Nset, nset=MENGPI_DI, instance=MENGPI2-1, generate
    1,  3980,     1
*Elset, elset=MENGPI_DI, instance=MENGPI2-1, generate
    1,  3792,     1
*Nset, nset=MENGPI_SIDE, instance=BIAN-1
    1,    2,    3,    4,    5,    6,    7,    8,   25,   26,   27,   28,   29,   30,   31,   32
   33,   34,   35,   36,   37,   38,   39,   40,   41,   42,   43,   44,   45,   46,   47,   48
   49,   50,   51,   52,   53,   54,   55,   56,   57,   58,   59,   60,   61,   62,   63,   64
   65,   66,   67,   68,   69,   70,   71,   72,   73,   74,   75,   76,   77,   78,   79,   80
   81,   82,   83,   84,   85,   86,   87,   88,   89,   90,   91,   92,   93,   94,   95,   96
   97,   98,   99,  100,  101,  102,  103,  104,  105,  106,  107,  108,  109,  110,  111,  112
  113,  114,  115,  116,  117,  118,  119,  120,  121,  122,  123,  124,  125,  126,  127,  128
  129,  130,  131,  132,  133,  134,  135,  136,  137,  138,  139,  140,  141,  142,  143,  144
  145,  146,  147,  148,  149,  150,  151,  152,  153,  154,  155,  156,  157,  158,  159,  160
  161,  162,  163,  164,  165,  166,  167,  168,  169,  170,  171,  172,  173,  174,  175,  176
  177,  178,  179,  180,  181,  182,  183,  184,  185,  186,  187,  188,  189,  190,  191,  192
  193,  194,  195,  196,  197,  198,  199,  200,  201,  202,  203,  204,  205,  206,  207,  208
  209,  210,  211,  212,  213,  214,  215,  216,  217,  218,  219,  220,  221,  222,  223,  224
  225,  226,  227,  228,  229,  230,  231,  232,  233,  234,  235,  236,  237,  238,  239,  240
  241,  242,  243,  244,  245,  246,  247,  248,  249,  250,  251,  252,  253,  254,  255,  256
  257,  258,  259,  260,  261,  262,  263,  264,  265,  266,  267,  268,  269,  270,  271,  272
  273,  274,  275,  276,  277,  278,  279,  280,  281,  282,  283,  284,  285,  286,  287,  288
  289,  290,  291,  292,  293,  294,  295,  296,  297,  298,  299,  300,  301,  302,  303,  304
  305,  306,  307,  308,  309,  310,  311,  312,  313,  314,  315,  316,  317,  318,  319,  320
  321,  322,  323,  324,  325,  326,  327,  328,  329,  330,  331,  332,  333,  334,  335,  336
** ... 46 like lines cut
*Elset, elset=MENGPI_SIDE, instance=BIAN-1, generate
   1,  792,    1
*Nset, nset=M_SET-5
 1,
*Nset, nset=M_SET-12, instance=WANGGE-1
    4,    5,    6,    8,    9,   12,   13,   16,   17,   19,   21,   23,   25,   27,   29,   32
   34,   36,   38,   40,   42,   44,   45,   48,   49,   52,   54,   56,   58,   60,   62,   63
   66,   67,   70,   72,   74,   76,   77,   80,   81,   83,   86,   88,   90,   92,   94,   96
   97,   99,  102,  104,  106,  108,  110,  112,  114,  115,  118,  120,  121,  124,  126,  127
  130,  131,  134,  135,  138,  139,  141,  144,  145,  148,  149,  151,  154,  156,  157,  159
  162,  163,  182,  183,  184,  185,  186,  187,  188,  189,  190,  191,  192,  193,  194,  195
  196,  209,  210,  211,  212,  213,  214,  215,  216,  217,  218,  219,  220,  221,  222,  223
  224,  261,  262,  263,  264,  265,  266,  267,  268,  269,  270,  271,  272,  273,  274,  275
  276,  277,  278,  279,  280,  281,  282,  283,  284,  285,  286,  287,  288,  289,  290,  291
  292,  329,  330,  331,  332,  333,  334,  335,  336,  337,  338,  339,  340,  341,  342,  343
  344,  345,  346,  347,  348,  349,  350,  351,  352,  353,  354,  355,  356,  357,  358,  359
  360,  397,  398,  399,  400,  401,  402,  403,  404,  405,  406,  407,  408,  409,  410,  411
  412,  431,  432,  433,  434,  435,  436,  437,  438,  439,  440,  441,  442,  443,  444,  445
  446,  461,  462,  463,  464,  465,  466,  467,  468,  469,  470,  471,  472,  487,  488,  489
  490,  491,  492,  493,  494,  495,  496,  497,  498,  513,  514,  515,  516,  517,  518,  519
  520,  521,  522,  523,  524,  539,  540,  541,  542,  543,  544,  545,  546,  547,  548,  549
  550,  565,  566,  567,  568,  569,  570,  571,  572,  573,  574,  575,  576,  579,  580,  581
  582,  583,  584,  585,  586,  587,  588,  601,  602,  603,  604,  605,  606,  607,  608,  609
  610,  611,  612,  613,  614,  615,  616,  649,  650,  651,  652,  653,  654,  655,  656,  657
  658,  659,  660,  661,  662,  663,  664,  665,  666,  667,  668,  669,  670,  671,  672,  673
** ... 60 like lines cut
*Elset, elset=M_SET-12, instance=WANGGE-1
   35,   36,   37,   38,   39,   40,   41,   42,   43,   44,   45,   46,   47,   48,   49,   50
   51,   54,   57,   60,   63,   66,   69,   72,   75,   78,   81,   84,   87,   90,   93,   96
   99,  102,  105,  108,  109,  112,  115,  118,  121,  124,  127,  130,  133,  136,  139,  142
  145,  148,  151,  154,  157,  162,  165,  168,  171,  174,  177,  180,  183,  186,  189,  192
  195,  198,  201,  204,  207,  210,  211,  214,  217,  220,  223,  226,  229,  232,  235,  238
  241,  244,  247,  250,  253,  256,  259,  264,  267,  270,  273,  276,  279,  282,  285,  288
  291,  294,  297,  300,  303,  306,  309,  312,  313,  316,  319,  322,  325,  328,  331,  334
  337,  340,  343,  346,  349,  352,  355,  358,  361,  364,  367,  370,  373,  376,  379,  382
  385,  388,  391,  394,  397,  400,  403,  406,  409,  412,  415,  418,  421,  424,  427,  430
  433,  436,  439,  442,  445,  448,  451,  454,  457,  460,  463,  466,  469,  472,  475,  478
  481,  484,  487,  490,  493,  496,  499,  502,  505,  508,  511,  514,  517,  520,  523,  526
  529,  532,  535,  538,  541,  544,  547,  550,  553,  556,  559,  562,  565,  568,  571,  574
  577,  580,  583,  586,  589,  592,  595,  598,  601,  604,  607,  612,  615,  618,  621,  624
  627,  630,  633,  636,  639,  642,  645,  648,  651,  654,  657,  660,  663,  666,  669,  672
  675,  678,  681,  684,  687,  690,  693,  694,  697,  700,  703,  706,  709,  712,  715,  718
  721,  724,  727,  730,  733,  736,  739,  742,  747,  750,  753,  756,  759,  762,  765,  768
  771,  774,  777,  780,  783,  786,  789,  792,  795,  796,  799,  802,  805,  808,  811,  814
  817,  820,  823,  826,  829,  832,  835,  838,  841,  844,  847,  852,  855,  858,  861,  864
  867,  868,  871,  874,  877,  880,  883,  886,  889,  892,  895,  898,  901,  904,  907,  910
  913,  916,  919,  922,  925,  928,  931,  934,  937,  940,  943,  946,  949,  952,  955,  958
** ... 61 like lines cut
*Nset, nset=SET-11, instance=JIAJU-1
 4745,
*Nset, nset=S_SET-13, instance=WANGGE-1
    1,    2,    3,    4,    5,    6,    7,    8,   11,   12,   41,   42,   45,   46,   47,   48
   63,   64,   65,   66,   69,   70,   77,   78,   81,   82,   97,   98,  105,  106,  107,  108
  113,  114,  121,  122,  151,  152,  159,  160,  163,  164,  165,  166,  167,  168,  169,  170
  171,  172,  173,  174,  175,  176,  177,  178,  179,  180,  181,  182,  183,  184,  185,  186
  187,  188,  189,  190,  191,  192,  193,  194,  195,  196,  197,  198,  199,  200,  203,  204
  577,  578,  729,  730,  731,  732, 1037, 1038, 1039, 1040, 1121, 1122, 1213, 1214, 1345, 1346
 1347, 1348, 1349, 1350, 1351, 1352, 1353, 1354, 1355, 1356, 1357, 1358, 1359, 1360, 1361, 1362
 1363, 1364, 1365, 1366, 1367, 1368, 1369, 1370, 1371, 1372, 1373, 1374, 1597, 1598, 1829, 1830
 1831, 1832, 1901, 1902, 2099, 2100, 2579, 2580, 2639, 2640, 2691, 2692, 2709, 2710, 2711, 2712
 2713, 2714, 2715, 2716, 2717, 2718, 2719, 2720, 2721, 2722, 2723, 2724, 2725, 2726, 2727, 2728
 2729, 2730, 2731, 2732, 2733, 2734, 2735, 2736, 2737, 2738, 2739, 2740, 3813, 3814, 3815, 3816
 3817, 3818, 3819, 3820, 3821, 3822, 3823, 3824, 3825, 3826, 3827, 3828, 3829, 3830, 3831, 3832
 3833, 3834, 3835, 3836, 3837, 3838, 3839, 3840, 3841, 3842, 3843, 3844
*Elset, elset=S_SET-13, instance=WANGGE-1
    1,    2,    3,    4,    5,    6,    7,    8,    9,   10,   11,   12,   13,   14,   15,   16
   17,   18,   19,   20,   21,   22,   23,   24,   25,   26,   27,   28,   29,   30,   31,   32
   33,   34,   35,   36,   37,   38,   39,   40,   41,   42,   43,   44,   45,   46,   47,   48
   49,   50,   51,   52,   53,   54,   55,   56,   57,  610,  611,  612,  847,  848,  849,  850
  851,  852, 1318, 1319, 1320, 1321, 1322, 1323, 1585, 1586, 1587, 1792, 1793, 1794, 1795, 1796
 1797, 1798, 1799, 1800, 1801, 1802, 1803, 1804, 1805, 1806, 1807, 1808, 1809, 1810, 1811, 1812
 1813, 1814, 1815, 1816, 1817, 1818, 1819, 1820, 1821, 1822, 1823, 1824, 1825, 1826, 1827, 1828
 1829, 1830, 1831, 1832, 1833, 1834, 1835, 1836, 1837, 1838, 1839, 1840, 1841, 1842, 2089, 2090
 2091, 2179, 2180, 2181, 2539, 2540, 2541, 2542, 2543, 2544, 2647, 2648, 2649, 2953, 2954, 2955
 3685, 3686, 3687, 3769, 3770, 3771, 3847, 3848, 3849
*Nset, nset=WANGGE_CRICLE_SIDE, instance=WANGGE-1
    3,    5,    7,    8,   11,   12,   41,   42,   45,   46,   47,   48,   63,   64,   65,   66
   77,   78,   97,   98,  105,  106,  107,  108,  113,  114,  121,  122,  151,  152,  159,  160
  163,  164,  180,  181,  199,  200,  203,  204,  577,  578,  729,  730,  731,  732, 1037, 1038
 1039, 1040, 1213, 1214, 1597, 1598, 1829, 1830, 1831, 1832, 1901, 1902, 2099, 2100, 2579, 2580
 2639, 2640, 2691, 2692
*Elset, elset=WANGGE_CRICLE_SIDE, instance=WANGGE-1
   17,   34,   51,   52,   53,   54,   55,   56,   57,  610,  611,  612,  847,  848,  849,  850
  851,  852, 1318, 1319, 1320, 1321, 1322, 1323, 1585, 1586, 1587, 1808, 1825, 1842, 2089, 2090
 2091, 2179, 2180, 2181, 2539, 2540, 2541, 2542, 2543, 2544, 2647, 2648, 2649, 2953, 2954, 2955
 3685, 3686, 3687, 3769, 3770, 3771, 3847, 3848, 3849
*Nset, nset=WANGGE_DI, instance=WANGGE-1
    4,    5,    6,    8,    9,   12,   13,   16,   17,   19,   21,   23,   25,   27,   29,   32
   34,   36,   38,   40,   42,   44,   45,   48,   49,   52,   54,   56,   58,   60,   62,   63
   66,   67,   70,   72,   74,   76,   77,   80,   81,   83,   86,   88,   90,   92,   94,   96
   97,   99,  102,  104,  106,  108,  110,  112,  114,  115,  118,  120,  121,  124,  126,  127
  130,  131,  134,  135,  138,  139,  141,  144,  145,  148,  149,  151,  154,  156,  157,  159
  162,  163,  182,  183,  184,  185,  186,  209,  210,  211,  212,  213,  214,  215,  216,  217
  218,  219,  220,  221,  222,  223,  224,  261,  262,  263,  264,  265,  266,  267,  268,  269
  270,  271,  272,  273,  274,  275,  276,  277,  278,  279,  280,  281,  282,  283,  284,  285
  286,  287,  288,  289,  290,  291,  292,  329,  330,  331,  332,  333,  334,  335,  336,  337
  338,  339,  340,  341,  342,  343,  344,  345,  346,  347,  348,  349,  350,  351,  352,  353
  354,  355,  356,  357,  358,  359,  360,  397,  398,  399,  400,  401,  402,  403,  404,  405
  406,  407,  408,  409,  410,  411,  412,  431,  432,  433,  434,  435,  436,  437,  438,  439
  440,  441,  442,  443,  444,  445,  446,  461,  462,  463,  464,  465,  466,  467,  468,  469
  470,  471,  472,  487,  488,  489,  490,  491,  492,  493,  494,  495,  496,  497,  498,  513
  514,  515,  516,  517,  518,  519,  520,  521,  522,  523,  524,  539,  540,  541,  542,  543
  544,  545,  546,  547,  548,  549,  550,  565,  566,  567,  568,  569,  570,  571,  572,  573
  574,  575,  576,  579,  580,  581,  582,  583,  584,  585,  586,  587,  588,  601,  602,  603
  604,  605,  606,  607,  608,  609,  610,  611,  612,  613,  614,  615,  616,  649,  650,  651
  652,  653,  654,  655,  656,  657,  658,  659,  660,  661,  662,  663,  664,  665,  666,  667
  668,  669,  670,  671,  672,  673,  674,  675,  676,  677,  678,  679,  680,  713,  714,  715
** ... 59 like lines cut
*Elset, elset=WANGGE_DI, instance=WANGGE-1
   35,   36,   37,   38,   39,   40,   54,   57,   60,   63,   66,   69,   72,   75,   78,   81
   84,   87,   90,   93,   96,   99,  102,  105,  108,  109,  112,  115,  118,  121,  124,  127
  130,  133,  136,  139,  142,  145,  148,  151,  154,  157,  162,  165,  168,  171,  174,  177
  180,  183,  186,  189,  192,  195,  198,  201,  204,  207,  210,  211,  214,  217,  220,  223
  226,  229,  232,  235,  238,  241,  244,  247,  250,  253,  256,  259,  264,  267,  270,  273
  276,  279,  282,  285,  288,  291,  294,  297,  300,  303,  306,  309,  312,  313,  316,  319
  322,  325,  328,  331,  334,  337,  340,  343,  346,  349,  352,  355,  358,  361,  364,  367
  370,  373,  376,  379,  382,  385,  388,  391,  394,  397,  400,  403,  406,  409,  412,  415
  418,  421,  424,  427,  430,  433,  436,  439,  442,  445,  448,  451,  454,  457,  460,  463
  466,  469,  472,  475,  478,  481,  484,  487,  490,  493,  496,  499,  502,  505,  508,  511
  514,  517,  520,  523,  526,  529,  532,  535,  538,  541,  544,  547,  550,  553,  556,  559
  562,  565,  568,  571,  574,  577,  580,  583,  586,  589,  592,  595,  598,  601,  604,  607
  612,  615,  618,  621,  624,  627,  630,  633,  636,  639,  642,  645,  648,  651,  654,  657
  660,  663,  666,  669,  672,  675,  678,  681,  684,  687,  690,  693,  694,  697,  700,  703
  706,  709,  712,  715,  718,  721,  724,  727,  730,  733,  736,  739,  742,  747,  750,  753
  756,  759,  762,  765,  768,  771,  774,  777,  780,  783,  786,  789,  792,  795,  796,  799
  802,  805,  808,  811,  814,  817,  820,  823,  826,  829,  832,  835,  838,  841,  844,  847
  852,  855,  858,  861,  864,  867,  868,  871,  874,  877,  880,  883,  886,  889,  892,  895
  898,  901,  904,  907,  910,  913,  916,  919,  922,  925,  928,  931,  934,  937,  940,  943
  946,  949,  952,  955,  958,  961,  964,  967,  970,  973,  976,  979,  982,  985,  988,  991
** ... 59 like lines cut
*Nset, nset=WANGGE_SIDE_ALL, instance=WANGGE-1
   15,   16,   29,   30,   43,   44,   49,   50,   61,   62,   67,   68,   79,   80,   83,   84
   95,   96,   99,  100,  115,  116,  127,  128,  129,  130,  131,  132,  133,  134,  135,  136
  137,  138,  139,  140,  141,  142,  143,  144,  145,  146,  147,  148,  149,  150,  153,  154
  155,  156,  161,  162,  207,  208,  413,  414,  599,  600,  743,  744,  907,  908, 1051, 1052
 1215, 1216, 1375, 1376, 1563, 1564, 1743, 1744, 2013, 2014, 2217, 2218, 2315, 2316, 2339, 2340
 2363, 2364, 2387, 2388, 2411, 2412, 2435, 2436, 2459, 2460, 2483, 2484, 2507, 2508, 2531, 2532
 2555, 2556, 2596, 2597, 2613, 2614, 2657, 2658
*Elset, elset=WANGGE_SIDE_ALL, instance=WANGGE-1
   58,   59,   60,  364,  365,  366,  643,  644,  645,  868,  869,  870, 1114, 1115, 1116, 1339
 1340, 1341, 1588, 1589, 1590, 1843, 1844, 1845, 2128, 2129, 2130, 2410, 2411, 2412, 2824, 2825
 2826, 3136, 3137, 3138, 3289, 3290, 3291, 3325, 3326, 3327, 3361, 3362, 3363, 3397, 3398, 3399
 3433, 3434, 3435, 3469, 3470, 3471, 3505, 3506, 3507, 3541, 3542, 3543, 3577, 3578, 3579, 3613
 3614, 3615, 3649, 3650, 3651, 3730, 3731, 3732, 3733, 3734, 3735, 3796, 3797, 3798
*Nset, nset=BIAN_DI_CNS_, internal, instance=BIAN-1
   3,   4,   6,   8,   9,  12,  14,  15,  19,  20,  23,  24,  97,  98,  99, 100
 101, 102, 103, 104, 105, 106, 107, 108, 109, 110, 111, 112, 113, 114, 115, 116
 117, 118, 119, 120, 121, 122, 123, 124, 125, 126, 127, 128, 129, 130, 131, 132
 133, 134, 135, 136, 137, 138, 139, 140, 141, 142, 143, 144, 145, 146, 147, 148
 149, 150, 151, 152, 153, 154, 155, 156, 157, 158, 159, 160, 161, 162, 163, 164
 165, 166, 231, 232, 233, 234, 235, 236, 237, 238, 239, 240, 241, 242, 243, 244
 245, 246, 247, 248, 249, 250, 251, 252, 253, 254, 255, 256, 257, 258, 259, 260
 261, 262, 263, 264, 265, 266, 267, 268, 269, 270, 271, 272, 273, 274, 275, 276
 277, 278, 279, 280, 281, 282, 283, 284, 285, 286, 287, 288, 289, 290, 363, 364
 365, 366, 367, 368, 369, 370, 371, 372, 373, 374, 375, 376, 377, 378, 379, 380
 381, 382, 383, 384, 385, 386, 387, 388, 389, 390, 391, 392, 393, 394, 395, 396
 397, 398, 399, 400, 401, 402, 403, 404, 405, 406, 407, 408, 409, 410, 411, 412
 413, 414, 415, 416, 417, 418, 419, 420, 421, 422, 423, 424, 425, 426, 427, 428
 429, 430, 431, 432, 493, 494, 495, 496, 497, 498, 499, 500, 501, 502, 503, 504
 505, 506, 507, 508, 509, 510, 511, 512, 513, 514, 515, 516, 517, 518, 519, 520
 521, 522, 523, 524, 525, 526, 527, 528, 529, 530, 531, 532, 533, 534, 535, 536
 537, 538, 539, 540, 541, 542, 543, 544, 545, 546, 547, 548, 549, 550, 551, 552
 581, 582, 583, 584, 585, 586, 587, 588, 589, 590, 591, 592, 593, 594, 595, 596
 597, 598, 599, 600, 601, 602, 603, 604, 605, 606, 607, 608, 609, 610, 611, 612
 613, 614, 615, 616, 617, 618, 619, 620, 621, 622, 623, 624, 625, 626, 627, 628
 655, 656, 678, 679, 680, 681, 682, 683, 684, 685, 686, 687, 688, 689, 690, 691
 692, 699, 700, 715, 716, 717, 718, 719, 720, 721, 722, 723, 724, 725, 726, 727
 728, 729, 730, 731, 732, 733, 734, 735, 736, 737, 738
*Nset, nset=MENGPI_CRICLE_IN_CNS_, internal, instance=BIAN-1
    9,   10,   11,   12,   13,   14,   15,   16,   17,   18,   19,   20,   21,   22,   23,   24
  553,  554,  555,  556,  557,  558,  559,  560,  561,  562,  563,  564,  565,  566,  567,  568
  569,  570,  571,  572,  573,  574,  575,  576,  577,  578,  579,  580,  581,  582,  583,  584
  585,  586,  587,  588,  589,  590,  591,  592,  593,  594,  595,  596,  597,  598,  599,  600
  601,  602,  603,  604,  605,  606,  607,  608,  609,  610,  611,  612,  613,  614,  615,  616
  617,  618,  619,  620,  621,  622,  623,  624,  625,  626,  627,  628,  629,  630,  631,  632
  633,  634,  635,  636,  637,  638,  639,  640,  641,  642,  643,  644,  645,  646,  647,  648
  649,  650,  651,  652,  653,  654,  655,  656,  657,  658,  659,  660,  661,  662,  663,  664
  665,  666,  667,  668,  669,  670,  671,  672,  673,  674,  675,  676,  677,  678,  679,  680
  681,  682,  683,  684,  685,  686,  687,  688,  689,  690,  691,  692,  693,  694,  695,  696
  697,  698,  699,  700,  701,  702,  703,  704,  705,  706,  707,  708,  709,  710,  711,  712
  713,  714,  715,  716,  717,  718,  719,  720,  721,  722,  723,  724,  725,  726,  727,  728
  729,  730,  731,  732,  733,  734,  735,  736,  737,  738,  739,  740,  741,  742,  743,  744
  745,  746,  747,  748,  749,  750, 1271, 1272, 1273, 1274, 1275, 1276, 1277, 1278, 1279, 1280
 1281, 1282, 1283, 1284, 1285, 1286, 1287, 1288, 1289, 1290, 1291, 1292, 1293, 1294, 1295, 1296
 1297, 1298, 1299, 1300, 1301, 1302, 1303, 1304, 1305, 1306, 1307, 1308, 1309, 1310, 1311, 1312
 1313, 1314, 1315, 1316, 1317, 1318, 1319, 1320, 1321, 1322, 1323, 1324, 1325, 1326, 1327, 1328
 1329, 1330, 1331, 1332, 1333, 1334, 1335, 1336, 1337, 1338, 1339, 1340, 1341, 1342, 1343, 1344
 1345, 1346, 1347, 1348, 1349, 1350, 1351, 1352, 1353, 1354, 1355, 1356, 1357, 1358, 1359, 1360
 1361, 1362, 1363, 1364, 1365, 1366, 1367, 1368, 1369, 1370, 1371, 1372, 1373, 1374, 1375, 1376
** ... 5 like lines cut
*Nset, nset=MENGPI_DI_CNS_, internal, instance=MENGPI2-1, generate
    1,  3980,     1
*Nset, nset=MENGPI_SIDE_CNS_, internal, instance=BIAN-1
    1,    2,    3,    4,    5,    6,    7,    8,   25,   26,   27,   28,   29,   30,   31,   32
   33,   34,   35,   36,   37,   38,   39,   40,   41,   42,   43,   44,   45,   46,   47,   48
   49,   50,   51,   52,   53,   54,   55,   56,   57,   58,   59,   60,   61,   62,   63,   64
   65,   66,   67,   68,   69,   70,   71,   72,   73,   74,   75,   76,   77,   78,   79,   80
   81,   82,   83,   84,   85,   86,   87,   88,   89,   90,   91,   92,   93,   94,   95,   96
   97,   98,   99,  100,  101,  102,  103,  104,  105,  106,  107,  108,  109,  110,  111,  112
  113,  114,  115,  116,  117,  118,  119,  120,  121,  122,  123,  124,  125,  126,  127,  128
  129,  130,  131,  132,  133,  134,  135,  136,  137,  138,  139,  140,  141,  142,  143,  144
  145,  146,  147,  148,  149,  150,  151,  152,  153,  154,  155,  156,  157,  158,  159,  160
  161,  162,  163,  164,  165,  166,  167,  168,  169,  170,  171,  172,  173,  174,  175,  176
  177,  178,  179,  180,  181,  182,  183,  184,  185,  186,  187,  188,  189,  190,  191,  192
  193,  194,  195,  196,  197,  198,  199,  200,  201,  202,  203,  204,  205,  206,  207,  208
  209,  210,  211,  212,  213,  214,  215,  216,  217,  218,  219,  220,  221,  222,  223,  224
  225,  226,  227,  228,  229,  230,  231,  232,  233,  234,  235,  236,  237,  238,  239,  240
  241,  242,  243,  244,  245,  246,  247,  248,  249,  250,  251,  252,  253,  254,  255,  256
  257,  258,  259,  260,  261,  262,  263,  264,  265,  266,  267,  268,  269,  270,  271,  272
  273,  274,  275,  276,  277,  278,  279,  280,  281,  282,  283,  284,  285,  286,  287,  288
  289,  290,  291,  292,  293,  294,  295,  296,  297,  298,  299,  300,  301,  302,  303,  304
  305,  306,  307,  308,  309,  310,  311,  312,  313,  314,  315,  316,  317,  318,  319,  320
  321,  322,  323,  324,  325,  326,  327,  328,  329,  330,  331,  332,  333,  334,  335,  336
** ... 46 like lines cut
*Nset, nset=M_SET-12_CNS_, internal, instance=WANGGE-1
    4,    5,    6,    8,    9,   12,   13,   16,   17,   19,   21,   23,   25,   27,   29,   32
   34,   36,   38,   40,   42,   44,   45,   48,   49,   52,   54,   56,   58,   60,   62,   63
   66,   67,   70,   72,   74,   76,   77,   80,   81,   83,   86,   88,   90,   92,   94,   96
   97,   99,  102,  104,  106,  108,  110,  112,  114,  115,  118,  120,  121,  124,  126,  127
  130,  131,  134,  135,  138,  139,  141,  144,  145,  148,  149,  151,  154,  156,  157,  159
  162,  163,  182,  183,  184,  185,  186,  187,  188,  189,  190,  191,  192,  193,  194,  195
  196,  209,  210,  211,  212,  213,  214,  215,  216,  217,  218,  219,  220,  221,  222,  223
  224,  261,  262,  263,  264,  265,  266,  267,  268,  269,  270,  271,  272,  273,  274,  275
  276,  277,  278,  279,  280,  281,  282,  283,  284,  285,  286,  287,  288,  289,  290,  291
  292,  329,  330,  331,  332,  333,  334,  335,  336,  337,  338,  339,  340,  341,  342,  343
  344,  345,  346,  347,  348,  349,  350,  351,  352,  353,  354,  355,  356,  357,  358,  359
  360,  397,  398,  399,  400,  401,  402,  403,  404,  405,  406,  407,  408,  409,  410,  411
  412,  431,  432,  433,  434,  435,  436,  437,  438,  439,  440,  441,  442,  443,  444,  445
  446,  461,  462,  463,  464,  465,  466,  467,  468,  469,  470,  471,  472,  487,  488,  489
  490,  491,  492,  493,  494,  495,  496,  497,  498,  513,  514,  515,  516,  517,  518,  519
  520,  521,  522,  523,  524,  539,  540,  541,  542,  543,  544,  545,  546,  547,  548,  549
  550,  565,  566,  567,  568,  569,  570,  571,  572,  573,  574,  575,  576,  579,  580,  581
  582,  583,  584,  585,  586,  587,  588,  601,  602,  603,  604,  605,  606,  607,  608,  609
  610,  611,  612,  613,  614,  615,  616,  649,  650,  651,  652,  653,  654,  655,  656,  657
  658,  659,  660,  661,  662,  663,  664,  665,  666,  667,  668,  669,  670,  671,  672,  673
** ... 60 like lines cut
*Nset, nset=S_SET-13_CNS_, internal, instance=WANGGE-1
    1,    2,    3,    4,    5,    6,    7,    8,   11,   12,   41,   42,   45,   46,   47,   48
   63,   64,   65,   66,   69,   70,   77,   78,   81,   82,   97,   98,  105,  106,  107,  108
  113,  114,  121,  122,  151,  152,  159,  160,  163,  164,  165,  166,  167,  168,  169,  170
  171,  172,  173,  174,  175,  176,  177,  178,  179,  180,  181,  182,  183,  184,  185,  186
  187,  188,  189,  190,  191,  192,  193,  194,  195,  196,  197,  198,  199,  200,  203,  204
  577,  578,  729,  730,  731,  732, 1037, 1038, 1039, 1040, 1121, 1122, 1213, 1214, 1345, 1346
 1347, 1348, 1349, 1350, 1351, 1352, 1353, 1354, 1355, 1356, 1357, 1358, 1359, 1360, 1361, 1362
 1363, 1364, 1365, 1366, 1367, 1368, 1369, 1370, 1371, 1372, 1373, 1374, 1597, 1598, 1829, 1830
 1831, 1832, 1901, 1902, 2099, 2100, 2579, 2580, 2639, 2640, 2691, 2692, 2709, 2710, 2711, 2712
 2713, 2714, 2715, 2716, 2717, 2718, 2719, 2720, 2721, 2722, 2723, 2724, 2725, 2726, 2727, 2728
 2729, 2730, 2731, 2732, 2733, 2734, 2735, 2736, 2737, 2738, 2739, 2740, 3813, 3814, 3815, 3816
 3817, 3818, 3819, 3820, 3821, 3822, 3823, 3824, 3825, 3826, 3827, 3828, 3829, 3830, 3831, 3832
 3833, 3834, 3835, 3836, 3837, 3838, 3839, 3840, 3841, 3842, 3843, 3844
*Nset, nset=WANGGE_SIDE_ALL_CNS_, internal, instance=WANGGE-1
   15,   16,   29,   30,   43,   44,   49,   50,   61,   62,   67,   68,   79,   80,   83,   84
   95,   96,   99,  100,  115,  116,  127,  128,  129,  130,  131,  132,  133,  134,  135,  136
  137,  138,  139,  140,  141,  142,  143,  144,  145,  146,  147,  148,  149,  150,  153,  154
  155,  156,  161,  162,  207,  208,  413,  414,  599,  600,  743,  744,  907,  908, 1051, 1052
 1215, 1216, 1375, 1376, 1563, 1564, 1743, 1744, 2013, 2014, 2217, 2218, 2315, 2316, 2339, 2340
 2363, 2364, 2387, 2388, 2411, 2412, 2435, 2436, 2459, 2460, 2483, 2484, 2507, 2508, 2531, 2532
 2555, 2556, 2596, 2597, 2613, 2614, 2657, 2658
*Nset, nset=_PICKEDSET17, internal, instance=JIAJU-1
    1,    2,    5,    8,   13,   14,   15,   16,   41,   42,   43,   44,   45,   46,   47,   48
   49,   50,   51,   52,   53,   54,   55,   56,   57,   58,   59,   91,   92,   93,   94,   95
   96,   97,   98,   99,  100,  101,  102,  103,  104,  105,  106,  107,  108,  109,  241,  242
  243,  244,  247,  248,  249,  250,  251,  252,  253,  254,  257,  258,  259,  260,  261,  262
  263,  264,  265,  266,  267,  268,  269,  270,  271,  272,  273,  274,  275,  276,  277,  278
  279,  280,  281,  282,  283,  284,  285,  286,  287,  288,  289,  290,  291,  292,  293,  294
  295,  296,  297,  298, 1439, 1440, 1441, 1442, 1443, 1444, 1445, 1446, 1447, 1448, 1449, 1450
 1451, 1452, 1453, 1454, 1455, 1456, 1457, 1458, 1459, 1460, 1461, 1462, 1463, 1464, 1465, 1466
 1467, 1468, 1469, 1470, 1471, 1472, 1473, 1474, 1475, 1476, 1477, 1478, 1479, 1480, 1481, 1482
 1483, 1484, 1485, 1486, 1487, 1488, 1489, 1490, 1491, 1492, 1493, 1494, 1495, 1496, 1497, 1498
 1499, 1500, 1501, 1502, 1503, 1504, 1505, 1506, 1507, 1508, 1509, 1510, 1511, 1512, 1513, 1514
 1515, 1516, 1517, 1518, 1519, 1520, 1521, 1522, 1523, 1524, 1525, 1526, 1527, 1528, 1529, 1530
 1531, 1532, 1533, 1534, 1535, 1536, 1537, 1538, 1539, 1540, 1541, 1542, 1543, 1544, 1545, 1546
 1547, 1548, 1549, 1550, 1551, 1552, 1553, 1554, 1555, 1556, 1557, 1558, 1559, 1560, 1561, 1562
 1563, 1564, 1565, 1566, 1567, 1568, 1569, 1570, 1571, 1572, 1573, 1574, 1575, 1576, 1577, 1578
 1579, 1580, 1581, 1582, 1583, 1584, 1585, 1586, 1587, 1588, 1589, 1590
*Elset, elset=_PICKEDSET17, internal, instance=JIAJU-1
  841,  842,  843,  844,  845,  851,  852,  853,  854,  855,  856,  857,  858,  859,  860,  866
  867,  868,  869,  870,  871,  872,  873,  874,  875,  881,  882,  883,  884,  885,  886,  887
  888,  889,  890,  896,  897,  898,  899,  900,  901,  902,  903,  904,  905,  911,  912,  913
  914,  915,  916,  917,  918,  919,  920,  926,  927,  928,  929,  930,  931,  932,  933,  934
  935,  941,  942,  943,  944,  945,  946,  947,  948,  949,  950,  956,  957,  958,  959,  960
  961,  962,  963,  964,  965,  971,  972,  973,  974,  975,  976,  977,  978,  979,  980,  986
  987,  988,  989,  990,  991,  992,  993,  994,  995, 1001, 1002, 1003, 1004, 1005, 1006, 1007
 1008, 1009, 1010, 1016, 1017, 1018, 1019, 1020, 1021, 1022, 1023, 1024, 1025, 1031, 1032, 1033
 1034, 1035, 1036, 1037, 1038, 1039, 1040, 1046, 1047, 1048, 1049, 1050, 1051, 1052, 1053, 1054
 1055, 1061, 1062, 1063, 1064, 1065, 1066, 1067, 1068, 1069, 1070, 1076, 1077, 1078, 1079, 1080
 1081, 1082, 1083, 1084, 1085, 1091, 1092, 1093, 1094, 1095, 1096, 1097, 1098, 1099, 1100, 1106
 1107, 1108, 1109, 1110, 1111, 1112, 1113, 1114, 1115, 1121, 1122, 1123, 1124, 1125, 1126, 1127
 1128, 1129, 1130, 1136, 1137, 1138, 1139, 1140
*Elset, elset=_S_SURF-6_SNEG, internal, instance=BIAN-1
 214, 215, 216, 217, 218, 219, 220, 221, 222, 223, 224, 225, 226, 227, 228, 229
 230, 231, 232, 233, 234, 235, 236, 237, 238, 239, 240, 241, 242, 243, 244, 245
 246, 247, 248, 249, 250, 251, 252, 253, 254, 255, 256, 257, 258, 259, 260, 261
 262, 263, 264, 265, 266, 267, 268, 269, 270, 271, 272, 273, 274, 275, 276, 277
 278, 279, 280, 281, 282, 283, 284, 285, 286, 287, 288, 289, 290, 291, 292, 293
 294, 295, 296, 297, 298, 299, 300, 301, 302, 303, 304, 305, 306, 307, 308, 309
 310, 311, 312, 313, 314, 315, 316, 317, 318, 319, 320, 321, 322, 323, 324, 325
 326, 327, 328, 329, 330, 331, 332, 333, 334, 335, 336, 337, 338, 339, 340, 341
 342, 343, 344, 345, 346, 347, 348, 349, 350, 351, 352, 353, 354, 355, 356, 357
 358, 359, 360, 361, 362, 363, 364, 365, 366, 367, 368, 369, 370, 371, 372, 373
 374, 375, 376, 377, 378, 379, 380, 381, 382, 383, 384, 385, 386, 387, 388, 389
 390, 391, 392, 393, 394, 395, 396, 610, 611, 612, 613, 614, 615, 616, 617, 618
 619, 620, 621, 622, 623, 624, 625, 626, 627, 628, 629, 630, 631, 632, 633, 634
 635, 636, 637, 638, 639, 640, 641, 642, 643, 644, 645, 646, 647, 648, 649, 650
 651, 652, 653, 654, 655, 656, 657, 658, 659, 660, 661, 662, 663, 664, 665, 666
 667, 668, 669, 670, 671, 672, 673, 674, 675, 676, 677, 678, 679, 680, 681, 682
 683, 684, 685, 686, 687, 688, 689, 690, 691, 692, 693, 694, 695, 696, 697, 698
 699, 700, 701, 702, 703, 704, 705, 706, 707, 708, 709, 710, 711, 712, 713, 714
 715, 716, 717, 718, 719, 720, 721, 722, 723, 724, 725, 726, 727, 728, 729, 730
 731, 732, 733, 734, 735, 736, 737, 738, 739, 740, 741, 742, 743, 744, 745, 746
 747, 748, 749, 750, 751, 752, 753, 754, 755, 756, 757, 758, 759, 760, 761, 762
 763, 764, 765, 766, 767, 768, 769, 770, 771, 772, 773, 774, 775, 776, 777, 778
 779, 780, 781, 782, 783, 784, 785, 786, 787, 788, 789, 790, 791, 792
*Elset, elset=__PICKEDSURF18_S3, internal, instance=JIAJU-1
 1981, 1982, 1983, 1984, 1985, 1996, 1997, 1998, 1999, 2000, 2011, 2012, 2013, 2014, 2015, 2026
 2027, 2028, 2029, 2030, 2041, 2042, 2043, 2044, 2045, 2056, 2057, 2058, 2059, 2060, 2071, 2072
 2073, 2074, 2075, 2086, 2087, 2088, 2089, 2090, 2101, 2102, 2103, 2104, 2105, 2116, 2117, 2118
 2119, 2120, 2131, 2132, 2133, 2134, 2135, 2146, 2147, 2148, 2149, 2150, 2161, 2162, 2163, 2164
 2165, 2176, 2177, 2178, 2179, 2180, 2191, 2192, 2193, 2194, 2195, 2206, 2207, 2208, 2209, 2210
 2221, 2222, 2223, 2224, 2225, 2236, 2237, 2238, 2239, 2240, 2251, 2252, 2253, 2254, 2255, 2266
 2267, 2268, 2269, 2270
*Elset, elset=__PICKEDSURF18_S5, internal, instance=JIAJU-1
 1991, 1992, 1993, 1994, 1995, 2006, 2007, 2008, 2009, 2010, 2021, 2022, 2023, 2024, 2025, 2036
 2037, 2038, 2039, 2040, 2051, 2052, 2053, 2054, 2055, 2066, 2067, 2068, 2069, 2070, 2081, 2082
 2083, 2084, 2085, 2096, 2097, 2098, 2099, 2100, 2111, 2112, 2113, 2114, 2115, 2126, 2127, 2128
 2129, 2130, 2141, 2142, 2143, 2144, 2145, 2156, 2157, 2158, 2159, 2160, 2171, 2172, 2173, 2174
 2175, 2186, 2187, 2188, 2189, 2190, 2201, 2202, 2203, 2204, 2205, 2216, 2217, 2218, 2219, 2220
 2231, 2232, 2233, 2234, 2235, 2246, 2247, 2248, 2249, 2250, 2261, 2262, 2263, 2264, 2265, 2276
 2277, 2278, 2279, 2280
*Elset, elset=__PICKEDSURF21_S1, internal, instance=JIAJU-1
 1501, 1502, 1503, 1504, 1505, 1506, 1507, 1508, 1509, 1510, 1511, 1512, 1513, 1514, 1515, 1516
 1517, 1518, 1519, 1520, 1521, 1522, 1523, 1524, 1525, 1526, 1527, 1528, 1529, 1530, 1531, 1532
 1533, 1534, 1535, 1536, 1537, 1538, 1539, 1540, 1541, 1542, 1543, 1544, 1545, 1546, 1547, 1548
 1549, 1550, 1551, 1552, 1553, 1554, 1555, 1556, 1557, 1558, 1559, 1560, 3061, 3062, 3063, 3064
 3065, 3066, 3067, 3068, 3069, 3070, 3071, 3072, 3073, 3074, 3075, 3076, 3077, 3078, 3079, 3080
 3081, 3082, 3083, 3084, 3085, 3086, 3087, 3088, 3089, 3090, 3091, 3092, 3093, 3094, 3095, 3096
 3097, 3098, 3099, 3100, 3101, 3102, 3103, 3104, 3105, 3106, 3107, 3108, 3109, 3110, 3111, 3112
 3113, 3114, 3115, 3116, 3117, 3118, 3119, 3120
*Elset, elset=__PICKEDSURF21_S2, internal, instance=JIAJU-1, generate
 1561,  1620,     1
*Elset, elset=__PICKEDSURF21_S4, internal, instance=JIAJU-1
  427,  434,  441,  448,  455,  462,  469,  476,  483,  490,  497,  504,  511,  518,  525,  532
  539,  546,  553,  560,  567,  574,  581,  588,  595,  602,  609,  616,  623,  630,  637,  644
  651,  658,  665,  672,  679,  686,  693,  700,  707,  714,  721,  728,  735,  742,  749,  756
  763,  770,  777,  784,  791,  798,  805,  812,  819,  826,  833,  840, 2287, 2294, 2301, 2308
 2315, 2322, 2329, 2336, 2343, 2350, 2357, 2364, 2371, 2378, 2385, 2392, 2399, 2406, 2413, 2420
 2427, 2434, 2441, 2448, 2455, 2462, 2469, 2476, 2483, 2490, 2497, 2504, 2511, 2518, 2525, 2532
 2539, 2546, 2553, 2560, 2567, 2574, 2581, 2588, 2595, 2602, 2609, 2616, 2623, 2630, 2637, 2644
 2651, 2658, 2665, 2672, 2679, 2686, 2693, 2700
*Elset, elset=__PICKEDSURF21_S5, internal, instance=JIAJU-1
 121, 122, 123, 124, 125, 126, 127, 128, 129, 130, 131, 132, 133, 134, 135, 136
 137, 138, 139, 140, 261, 262, 263, 264, 265, 266, 267, 268, 269, 270, 271, 272
 273, 274, 275, 276, 277, 278, 279, 280, 401, 402, 403, 404, 405, 406, 407, 408
 409, 410, 411, 412, 413, 414, 415, 416, 417, 418, 419, 420
*Surface, type=ELEMENT, name=S_SURF-6
_S_SURF-6_SNEG, SNEG
*Elset, elset=__PICKEDSURF18_S5_1, internal, instance=JIAJU-1
 1991, 1992, 1993, 1994, 1995, 2006, 2007, 2008, 2009, 2010, 2021, 2022, 2023, 2024, 2025, 2036
 2037, 2038, 2039, 2040, 2051, 2052, 2053, 2054, 2055, 2066, 2067, 2068, 2069, 2070, 2081, 2082
 2083, 2084, 2085, 2096, 2097, 2098, 2099, 2100, 2111, 2112, 2113, 2114, 2115, 2126, 2127, 2128
 2129, 2130, 2141, 2142, 2143, 2144, 2145, 2156, 2157, 2158, 2159, 2160, 2171, 2172, 2173, 2174
 2175, 2186, 2187, 2188, 2189, 2190, 2201, 2202, 2203, 2204, 2205, 2216, 2217, 2218, 2219, 2220
 2231, 2232, 2233, 2234, 2235, 2246, 2247, 2248, 2249, 2250, 2261, 2262, 2263, 2264, 2265, 2276
 2277, 2278, 2279, 2280
*Elset, elset=__PICKEDSURF18_S3_1, internal, instance=JIAJU-1
 1981, 1982, 1983, 1984, 1985, 1996, 1997, 1998, 1999, 2000, 2011, 2012, 2013, 2014, 2015, 2026
 2027, 2028, 2029, 2030, 2041, 2042, 2043, 2044, 2045, 2056, 2057, 2058, 2059, 2060, 2071, 2072
 2073, 2074, 2075, 2086, 2087, 2088, 2089, 2090, 2101, 2102, 2103, 2104, 2105, 2116, 2117, 2118
 2119, 2120, 2131, 2132, 2133, 2134, 2135, 2146, 2147, 2148, 2149, 2150, 2161, 2162, 2163, 2164
 2165, 2176, 2177, 2178, 2179, 2180, 2191, 2192, 2193, 2194, 2195, 2206, 2207, 2208, 2209, 2210
 2221, 2222, 2223, 2224, 2225, 2236, 2237, 2238, 2239, 2240, 2251, 2252, 2253, 2254, 2255, 2266
 2267, 2268, 2269, 2270
*Surface, type=ELEMENT, name=_PICKEDSURF18, internal
__PICKEDSURF18_S5_1, S5
__PICKEDSURF18_S3_1, S3
*Elset, elset=__PICKEDSURF21_S5_1, internal, instance=JIAJU-1
 121, 122, 123, 124, 125, 126, 127, 128, 129, 130, 131, 132, 133, 134, 135, 136
 137, 138, 139, 140, 261, 262, 263, 264, 265, 266, 267, 268, 269, 270, 271, 272
 273, 274, 275, 276, 277, 278, 279, 280, 401, 402, 403, 404, 405, 406, 407, 408
 409, 410, 411, 412, 413, 414, 415, 416, 417, 418, 419, 420
*Elset, elset=__PICKEDSURF21_S4_1, internal, instance=JIAJU-1
  427,  434,  441,  448,  455,  462,  469,  476,  483,  490,  497,  504,  511,  518,  525,  532
  539,  546,  553,  560,  567,  574,  581,  588,  595,  602,  609,  616,  623,  630,  637,  644
  651,  658,  665,  672,  679,  686,  693,  700,  707,  714,  721,  728,  735,  742,  749,  756
  763,  770,  777,  784,  791,  798,  805,  812,  819,  826,  833,  840, 2287, 2294, 2301, 2308
 2315, 2322, 2329, 2336, 2343, 2350, 2357, 2364, 2371, 2378, 2385, 2392, 2399, 2406, 2413, 2420
 2427, 2434, 2441, 2448, 2455, 2462, 2469, 2476, 2483, 2490, 2497, 2504, 2511, 2518, 2525, 2532
 2539, 2546, 2553, 2560, 2567, 2574, 2581, 2588, 2595, 2602, 2609, 2616, 2623, 2630, 2637, 2644
 2651, 2658, 2665, 2672, 2679, 2686, 2693, 2700
*Elset, elset=__PICKEDSURF21_S2_1, internal, instance=JIAJU-1, generate
 1561,  1620,     1
*Elset, elset=__PICKEDSURF21_S1_1, internal, instance=JIAJU-1
 1501, 1502, 1503, 1504, 1505, 1506, 1507, 1508, 1509, 1510, 1511, 1512, 1513, 1514, 1515, 1516
 1517, 1518, 1519, 1520, 1521, 1522, 1523, 1524, 1525, 1526, 1527, 1528, 1529, 1530, 1531, 1532
 1533, 1534, 1535, 1536, 1537, 1538, 1539, 1540, 1541, 1542, 1543, 1544, 1545, 1546, 1547, 1548
 1549, 1550, 1551, 1552, 1553, 1554, 1555, 1556, 1557, 1558, 1559, 1560, 3061, 3062, 3063, 3064
 3065, 3066, 3067, 3068, 3069, 3070, 3071, 3072, 3073, 3074, 3075, 3076, 3077, 3078, 3079, 3080
 3081, 3082, 3083, 3084, 3085, 3086, 3087, 3088, 3089, 3090, 3091, 3092, 3093, 3094, 3095, 3096
 3097, 3098, 3099, 3100, 3101, 3102, 3103, 3104, 3105, 3106, 3107, 3108, 3109, 3110, 3111, 3112
 3113, 3114, 3115, 3116, 3117, 3118, 3119, 3120
*Surface, type=ELEMENT, name=_PICKEDSURF21, internal
__PICKEDSURF21_S5_1, S5
__PICKEDSURF21_S4_1, S4
__PICKEDSURF21_S2_1, S2
__PICKEDSURF21_S1_1, S1
*Surface, type=NODE, name=MENGPI_DI_CNS__CNS_, internal
MENGPI_DI_CNS_, 1.
*Surface, type=NODE, name=BIAN_DI_CNS__CNS_, internal
BIAN_DI_CNS_, 1.
*Surface, type=NODE, name=M_SET-12_CNS__CNS_, internal
M_SET-12_CNS_, 1.
*Surface, type=NODE, name=MENGPI_SIDE_CNS__CNS_, internal
MENGPI_SIDE_CNS_, 1.
*Surface, type=NODE, name=WANGGE_SIDE_ALL_CNS__CNS_, internal
WANGGE_SIDE_ALL_CNS_, 1.
*Surface, type=NODE, name=MENGPI_CRICLE_IN_CNS__CNS_, internal
MENGPI_CRICLE_IN_CNS_, 1.
*Surface, type=NODE, name=S_SET-13_CNS__CNS_, internal
S_SET-13_CNS_, 1.
** Constraint: BIAN_PI-1
*Tie, name=BIAN_PI-1, adjust=yes
BIAN_DI_CNS__CNS_, MENGPI_DI_CNS__CNS_
** Constraint: CONSTRAINT-3-1
*Tie, name=CONSTRAINT-3-1, adjust=no, position tolerance=10.
MENGPI_DI_CNS__CNS_, M_SET-12_CNS__CNS_
** Constraint: CONSTRAINT-4-1
*Tie, name=CONSTRAINT-4-1, adjust=no, position tolerance=10.
WANGGE_SIDE_ALL_CNS__CNS_, MENGPI_SIDE_CNS__CNS_
** Constraint: CONSTRAINT-5-1
*Tie, name=CONSTRAINT-5-1, adjust=no, position tolerance=10.
S_SET-13_CNS__CNS_, MENGPI_CRICLE_IN_CNS__CNS_
** Constraint: JIAJU-MENGPI-1
*Tie, name=JIAJU-MENGPI-1, adjust=no, position tolerance=5.
_PICKEDSURF21, S_SURF-6
** Constraint: LOAD
*Coupling, constraint name=LOAD, ref node=JIAJU-1.OUTPUT, surface=_PICKEDSURF18
*Kinematic
*End Assembly
*Amplitude, name=AMP-1
             0.,              0.,             0.1,              1.
** 
** MATERIALS
** 
*Material, name=AL
*Density
 2.72e-09,
*Elastic
68100., 0.33
*Plastic
  272.,    0.
 307.5, 0.135
** 
** BOUNDARY CONDITIONS
** 
** Name: Disp-BC-1 Type: Symmetry/Antisymmetry/Encastre
*Boundary
_PICKEDSET17, ENCASTRE
** ----------------------------------------------------------------
** 
** STEP: Step-1
** 
*Step, name=Step-1, nlgeom=YES
*Dynamic, Explicit
, 0.1
*Bulk Viscosity
0.06, 1.2
** 
** BOUNDARY CONDITIONS
** 
** Name: Disp-BC-2 Type: Displacement/Rotation
*Boundary, amplitude=AMP-1
JIAJU-1.OUTPUT, 1, 1
** Name: Disp-BC-3 Type: Displacement/Rotation
*Boundary, amplitude=AMP-1
JIAJU-1.OUTPUT, 2, 2, -4.
** Name: Disp-BC-4 Type: Displacement/Rotation
*Boundary, amplitude=AMP-1
JIAJU-1.OUTPUT, 3, 3
** Name: Disp-BC-5 Type: Displacement/Rotation
*Boundary, amplitude=AMP-1
JIAJU-1.OUTPUT, 4, 4
** Name: Disp-BC-6 Type: Displacement/Rotation
*Boundary, amplitude=AMP-1
JIAJU-1.OUTPUT, 5, 5
** Name: Disp-BC-7 Type: Displacement/Rotation
*Boundary, amplitude=AMP-1
JIAJU-1.OUTPUT, 6, 6
** 
** OUTPUT REQUESTS
** 
*Restart, write, number interval=1, time marks=NO
** 
** FIELD OUTPUT: F-Output-2
** 
*Output, field, number interval=100, time marks=YES
*Node Output
U, 
*Element Output, directions=YES
E, EEQUT, LE, MISES, NE, NEEQ, PE, PEEQ
** 
** FIELD OUTPUT: F-Output-1
** 
*Node Output
RF, U
** 
** HISTORY OUTPUT: H-Output-1
** 
*Output, history, time interval=0.001
*Node Output, nset=JIAJU-1.OUTPUT
RF2, U1, U2, U3
** 
** HISTORY OUTPUT: H-Output-2
** 
*Output, history
*Energy Output
ALLAE, ALLIE, ALLKE, ALLPD, ETOTAL
*End Step
