*Heading
** Job name: VS_with_imperfections Model name: VS_with_imperfections
** Generated by: Abaqus/CAE 2020
*Preprint, echo=NO, model=NO, history=NO, contact=NO
**
** PARTS
**
*Part, name=BIAN
*Node
      1,   304.799988,  -355.600006,         20.5
      2,   304.799988,   355.600006,         20.5
      3,   304.799988,   355.600006,          2.5
      4,   304.799988,  -355.600006,          2.5
      5,  -304.799988,   355.600006,         20.5
      6,  -304.799988,   355.600006,          2.5
      7,  -304.799988,  -355.600006,         20.5
      8,  -304.799988,  -355.600006,          2.5
      9,  -93.3482208,  -231.771164,          2.5
     10,  -93.3482208,  -231.771164,         20.5
     11,  -211.451782,  -123.828827,         20.5
     12,  -211.451782,  -123.828827,          2.5
     13,   32.4000015,   217.800003,         20.5
     14,   32.4000015,   217.800003,          2.5
     15,           0.,   217.800003,          2.5
     16,           0.,   217.800003,         20.5
     17,           0.,   57.7999992,         20.5
     18,           0.,   57.7999992,          2.5
     19,         160.,   217.800003,         20.5
     20,         160.,   57.7999992,         20.5
** ... 1492 like lines cut
*Element, type=S4R
   1,    1,   25,  781,  168
   2,   25,   26,  782,  781
   3,   26,   27,  783,  782
   4,   27,   28,  784,  783
   5,   28,   29,  785,  784
   6,   29,   30,  786,  785
   7,   30,   31,  787,  786
   8,   31,   32,  788,  787
   9,   32,   33,  789,  788
  10,   33,   34,  790,  789
  11,   34,   35,  791,  790
  12,   35,   36,  792,  791
  13,   36,   37,  793,  792
  14,   37,   38,  794,  793
  15,   38,   39,  795,  794
  16,   39,   40,  796,  795
  17,   40,   41,  797,  796
  18,   41,   42,  798,  797
  19,   42,   43,  799,  798
  20,   43,   44,  800,  799
** ... 1114 like lines cut
*Nset, nset=SET-8
    9,   10,   11,   12,   13,   14,   19,   20,   21,   22,   23,   24,  553,  554,  555,  556
  557,  558,  559,  560,  561,  562,  563,  564,  565,  566,  567,  568,  569,  570,  571,  572
  573,  574,  575,  576,  577,  578,  579,  580,  581,  582,  583,  584,  585,  586,  587,  588
  589,  590,  591,  592,  593,  594,  595,  596,  597,  598,  599,  600,  601,  602,  603,  604
  605,  606,  607,  608,  609,  610,  611,  612,  613,  614,  615,  616,  617,  618,  619,  620
  621,  622,  623,  624,  625,  626,  627,  628,  629,  630,  631,  632,  633,  634,  635,  636
  637,  638,  639,  640,  641,  642,  643,  644,  645,  646,  647,  648,  649,  650,  651,  652
  653,  654,  708,  709,  725,  726,  729,  730,  733,  734,  735,  736,  737,  738,  739,  740
  741,  742,  743,  744,  745,  746,  747,  748,  749,  750,  751,  752,  753,  754,  755,  756
  757,  758,  759,  760,  761,  762,  763,  764,  765,  766,  767,  768,  769,  770,  771,  772
  773,  774,  775,  776,  777,  778,  779,  780, 1301, 1302, 1303, 1304, 1305, 1306, 1307, 1308
 1309, 1310, 1311, 1312, 1313, 1314, 1315, 1316, 1317, 1318, 1319, 1320, 1321, 1322, 1323, 1324
 1325, 1326, 1327, 1328, 1329, 1330, 1331, 1332, 1333, 1334, 1335, 1336, 1337, 1338, 1339, 1340
 1341, 1342, 1343, 1344, 1345, 1346, 1347, 1348, 1349, 1350, 1351, 1352, 1353, 1354, 1355, 1356
 1357, 1358, 1359, 1360, 1361, 1362, 1363, 1364, 1365, 1366, 1367, 1368, 1369, 1370, 1371, 1372
 1373, 1374, 1375, 1376, 1377, 1378, 1379, 1380, 1381, 1382, 1383, 1384, 1385, 1386, 1387, 1388
 1389, 1390, 1391, 1392, 1393, 1394, 1395, 1396, 1465, 1466, 1467, 1468, 1469, 1470, 1471, 1472
 1473, 1474, 1475, 1476, 1477, 1478, 1479, 1480, 1481, 1482, 1483, 1484, 1485, 1486, 1487, 1488
 1489, 1490, 1491, 1492, 1493, 1494, 1495, 1496, 1497, 1498, 1499, 1500, 1501, 1502, 1503, 1504
 1505, 1506, 1507, 1508, 1509, 1510, 1511, 1512
*Elset, elset=SET-8
  793,  794,  795,  796,  797,  798,  799,  800,  801,  802,  803,  804,  805,  806,  807,  808
  809,  810,  811,  812,  813,  814,  815,  816,  817,  818,  819,  820,  821,  822,  823,  824
  825,  826,  827,  828,  829,  830,  831,  832,  833,  834,  835,  836,  837,  838,  839,  840
  841,  842,  843,  844,  845,  846,  847,  848,  849,  850,  851,  852,  853,  854,  855,  856
  857,  858,  859,  860,  861,  862,  863,  864,  865,  866,  867,  868,  869,  870,  871,  872
  873,  874,  875,  876,  877,  878,  879,  880,  881,  882,  883,  884,  885,  886,  887,  888
  889,  890,  891,  892,  893,  894,  895,  896,  897,  898,  899,  900,  901,  902,  903,  904
  905,  906,  907,  908,  909,  910,  911,  912,  913,  914,  915,  916,  917,  918,  919,  920
  921,  922,  923,  924,  925,  926,  927,  928,  929,  930,  931,  932,  933,  934,  935,  936
  937,  938,  939,  940,  941,  942, 1057, 1058, 1059, 1060, 1061, 1062, 1063, 1064, 1065, 1066
 1067, 1068, 1069, 1070, 1071, 1072, 1073, 1074, 1075, 1076, 1077, 1078, 1079, 1080, 1081, 1082
 1083, 1084, 1085, 1086, 1087, 1088, 1089, 1090, 1091, 1092, 1093, 1094, 1095, 1096, 1097, 1098
 1099, 1100, 1101, 1102, 1103, 1104, 1105, 1106, 1107, 1108, 1109, 1110, 1111, 1112, 1113, 1114
 1115, 1116, 1117, 1118, 1119, 1120, 1121, 1122, 1123, 1124, 1125, 1126, 1127, 1128, 1129, 1130
 1131, 1132, 1133, 1134
*Nset, nset=SET-9
    1,    2,    3,    4,    5,    6,    7,    8,   25,   26,   27,   28,   29,   30,   31,   32
   33,   34,   35,   36,   37,   38,   39,   40,   41,   42,   43,   44,   45,   46,   47,   48
   49,   50,   51,   52,   53,   54,   55,   56,   57,   58,   59,   60,   61,   62,   63,   64
   65,   66,   67,   68,   69,   70,   71,   72,   73,   74,   75,   76,   77,   78,   79,   80
   81,   82,   83,   84,   85,   86,   87,   88,   89,   90,   91,   92,   93,   94,   95,   96
   97,   98,   99,  100,  101,  102,  103,  104,  105,  106,  107,  108,  109,  110,  111,  112
  113,  114,  115,  116,  117,  118,  119,  120,  121,  122,  123,  124,  125,  126,  127,  128
  129,  130,  131,  132,  133,  134,  135,  136,  137,  138,  139,  140,  141,  142,  143,  144
  145,  146,  147,  148,  149,  150,  151,  152,  153,  154,  155,  156,  157,  158,  159,  160
  161,  162,  163,  164,  165,  166,  167,  168,  169,  170,  171,  172,  173,  174,  175,  176
  177,  178,  179,  180,  181,  182,  183,  184,  185,  186,  187,  188,  189,  190,  191,  192
  193,  194,  195,  196,  197,  198,  199,  200,  201,  202,  203,  204,  205,  206,  207,  208
  209,  210,  211,  212,  213,  214,  215,  216,  217,  218,  219,  220,  221,  222,  223,  224
  225,  226,  227,  228,  229,  230,  231,  232,  233,  234,  235,  236,  237,  238,  239,  240
  241,  242,  243,  244,  245,  246,  247,  248,  249,  250,  251,  252,  253,  254,  255,  256
  257,  258,  259,  260,  261,  262,  263,  264,  265,  266,  267,  268,  269,  270,  271,  272
  273,  274,  275,  276,  277,  278,  279,  280,  281,  282,  283,  284,  285,  286,  287,  288
  289,  290,  291,  292,  293,  294,  295,  296,  297,  298,  299,  300,  301,  302,  303,  304
  305,  306,  307,  308,  309,  310,  311,  312,  313,  314,  315,  316,  317,  318,  319,  320
  321,  322,  323,  324,  325,  326,  327,  328,  329,  330,  331,  332,  333,  334,  335,  336
** ... 46 like lines cut
*Elset, elset=SET-9, generate
   1,  792,    1
*Nset, nset=SET-11
    9,   10,   11,   12,   13,   14,   15,   16,   17,   18,   19,   20,   21,   22,   23,   24
  553,  554,  555,  556,  557,  558,  559,  560,  561,  562,  563,  564,  565,  566,  567,  568
  569,  570,  571,  572,  573,  574,  575,  576,  577,  578,  579,  580,  581,  582,  583,  584
  585,  586,  587,  588,  589,  590,  591,  592,  593,  594,  595,  596,  597,  598,  599,  600
  601,  602,  603,  604,  605,  606,  607,  608,  609,  610,  611,  612,  613,  614,  615,  616
  617,  618,  619,  620,  621,  622,  623,  624,  625,  626,  627,  628,  629,  630,  631,  632
  633,  634,  635,  636,  637,  638,  639,  640,  641,  642,  643,  644,  645,  646,  647,  648
  649,  650,  651,  652,  653,  654,  655,  656,  657,  658,  659,  660,  661,  662,  663,  664
  665,  666,  667,  668,  669,  670,  671,  672,  673,  674,  675,  676,  677,  678,  679,  680
  681,  682,  683,  684,  685,  686,  687,  688,  689,  690,  691,  692,  693,  694,  695,  696
  697,  698,  699,  700,  701,  702,  703,  704,  705,  706,  707,  708,  709,  710,  711,  712
  713,  714,  715,  716,  717,  718,  719,  720,  721,  722,  723,  724,  725,  726,  727,  728
  729,  730,  731,  732,  733,  734,  735,  736,  737,  738,  739,  740,  741,  742,  743,  744
  745,  746,  747,  748,  749,  750,  751,  752,  753,  754,  755,  756,  757,  758,  759,  760
  761,  762,  763,  764,  765,  766,  767,  768,  769,  770,  771,  772,  773,  774,  775,  776
  777,  778,  779,  780, 1301, 1302, 1303, 1304, 1305, 1306, 1307, 1308, 1309, 1310, 1311, 1312
 1313, 1314, 1315, 1316, 1317, 1318, 1319, 1320, 1321, 1322, 1323, 1324, 1325, 1326, 1327, 1328
 1329, 1330, 1331, 1332, 1333, 1334, 1335, 1336, 1337, 1338, 1339, 1340, 1341, 1342, 1343, 1344
 1345, 1346, 1347, 1348, 1349, 1350, 1351, 1352, 1353, 1354, 1355, 1356, 1357, 1358, 1359, 1360
 1361, 1362, 1363, 1364, 1365, 1366, 1367, 1368, 1369, 1370, 1371, 1372, 1373, 1374, 1375, 1376
** ... 9 like lines cut
*Elset, elset=SET-11, generate
  793,  1134,     1
*Elset, elset=Set-4
 214, 215, 216, 217, 218, 219, 220, 221, 222, 223, 224, 225, 226, 227, 228, 229
 230, 231, 232, 233, 234, 235, 236, 237, 238, 239, 240, 241, 242, 243, 244, 245
 246, 247, 248, 249, 250, 251, 252, 253, 254, 255, 256, 257, 258, 259, 260, 261
 262, 263, 264, 265, 266, 267, 268, 269, 270, 271, 272, 273, 274, 275, 276, 277
 278, 279, 280, 281, 282, 283, 284, 285, 286, 287, 288, 289, 290, 291, 292, 293
 294, 295, 296, 297, 298, 299, 300, 301, 302, 303, 304, 305, 306, 307, 308, 309
 310, 311, 312, 313, 314, 315, 316, 317, 318, 319, 320, 321, 322, 323, 324, 325
 326, 327, 328, 329, 330, 331, 332, 333, 334, 335, 336, 337, 338, 339, 340, 341
 342, 343, 344, 345, 346, 347, 348, 349, 350, 351, 352, 353, 354, 355, 356, 357
 358, 359, 360, 361, 362, 363, 364, 365, 366, 367, 368, 369, 370, 371, 372, 373
 374, 375, 376, 377, 378, 379, 380, 381, 382, 383, 384, 385, 386, 387, 388, 389
 390, 391, 392, 393, 394, 395, 396, 610, 611, 612, 613, 614, 615, 616, 617, 618
 619, 620, 621, 622, 623, 624, 625, 626, 627, 628, 629, 630, 631, 632, 633, 634
 635, 636, 637, 638, 639, 640, 641, 642, 643, 644, 645, 646, 647, 648, 649, 650
 651, 652, 653, 654, 655, 656, 657, 658, 659, 660, 661, 662, 663, 664, 665, 666
 667, 668, 669, 670, 671, 672, 673, 674, 675, 676, 677, 678, 679, 680, 681, 682
 683, 684, 685, 686, 687, 688, 689, 690, 691, 692, 693, 694, 695, 696, 697, 698
 699, 700, 701, 702, 703, 704, 705, 706, 707, 708, 709, 710, 711, 712, 713, 714
 715, 716, 717, 718, 719, 720, 721, 722, 723, 724, 725, 726, 727, 728, 729, 730
 731, 732, 733, 734, 735, 736, 737, 738, 739, 740, 741, 742, 743, 744, 745, 746
 747, 748, 749, 750, 751, 752, 753, 754, 755, 756, 757, 758, 759, 760, 761, 762
 763, 764, 765, 766, 767, 768, 769, 770, 771, 772, 773, 774, 775, 776, 777, 778
 779, 780, 781, 782, 783, 784, 785, 786, 787, 788, 789, 790, 791, 792
*Elset, elset=Set-5, generate
 397,  609,    1
*Elset, elset=Set-6, generate
   1,  213,    1
** Section: qujin_zong_16
*Shell Section, elset=Set-6, material=AL
2.53, 5
** Section: Section-20-SET-9
*Shell Section, elset=Set-4, material=AL, offset=SNEG
2.5, 5
** Section: qujin_zong_0
*Shell Section, elset=Set-5, material=AL
2.65, 5
** Section: Section-21-SET-11
*Shell Section, elset=SET-11, material=AL, offset=SPOS
2.5, 5
*End Part
**  
*Part, name=JIAJU
*Node
      1,         100.,  -465.600006,           0.
      2,        -100.,  -465.600006,           0.
      3,        -100.,  -355.600006,           0.
      4,         100.,  -355.600006,           0.
      5,        -100.,  -465.600006,         20.5
      6,        -100.,  -355.600006,         20.5
      7,         100.,  -355.600006,         20.5
      8,         100.,  -465.600006,         20.5
      9,  -304.799988,  -405.600006,         20.5
     10,  -304.600006,  -355.600006,         20.5
     11,  -304.600006,  -355.600006,           0.
     12,  -304.799988,  -405.600006,           0.
     13,         100.,  -515.599976,         20.5
     14,         100.,  -515.599976,           0.
     15,        -100.,  -515.599976,         20.5
     16,        -100.,  -515.599976,           0.
     17,   304.799988,  -405.600006,         20.5
     18,   304.799988,  -405.600006,           0.
     19,   304.799988,  -355.600006,           0.
     20,   304.799988,  -355.600006,         20.5
** ... 4725 like lines cut
*Element, type=C3D8R
   1,  144,  993, 3073,  969,    1,   41,  741,   90
   2,  993,  994, 3074, 3073,   41,   42,  742,  741
   3,  994,  995, 3075, 3074,   42,   43,  743,  742
   4,  995,  996, 3076, 3075,   43,   44,  744,  743
   5,  996,  997, 3077, 3076,   44,   45,  745,  744
   6,  997,  998, 3078, 3077,   45,   46,  746,  745
   7,  998,  999, 3079, 3078,   46,   47,  747,  746
   8,  999, 1000, 3080, 3079,   47,   48,  748,  747
   9, 1000, 1001, 3081, 3080,   48,   49,  749,  748
  10, 1001, 1002, 3082, 3081,   49,   50,  750,  749
  11, 1002, 1003, 3083, 3082,   50,   51,  751,  750
  12, 1003, 1004, 3084, 3083,   51,   52,  752,  751
  13, 1004, 1005, 3085, 3084,   52,   53,  753,  752
  14, 1005, 1006, 3086, 3085,   53,   54,  754,  753
  15, 1006, 1007, 3087, 3086,   54,   55,  755,  754
  16, 1007, 1008, 3088, 3087,   55,   56,  756,  755
  17, 1008, 1009, 3089, 3088,   56,   57,  757,  756
  18, 1009, 1010, 3090, 3089,   57,   58,  758,  757
  19, 1010, 1011, 3091, 3090,   58,   59,  759,  758
  20, 1011,  147,  981, 3091,   59,    2,   60,  759
** ... 3100 like lines cut
*Nset, nset=JIAJU-REFPT_, internal
 4745,
*Nset, nset=SET-3, generate
    1,  4744,     1
*Elset, elset=SET-3, generate
    1,  3120,     1
*Nset, nset=JIAJU-SHANG
   21,   22,   23,   24,   34,   35,   39,   40,  391,  392,  393,  394,  395,  396,  397,  398
  399,  400,  401,  402,  403,  404,  405,  406,  407,  408,  409,  410,  411,  412,  413,  414
  415,  416,  417,  418,  419,  420,  421,  422,  423,  424,  425,  426,  427,  428,  429,  430
  431,  432,  563,  564,  611,  612,  613,  614,  615,  616,  617,  618,  619,  620,  621,  622
  623,  624,  625,  626,  627,  628,  629,  630,  631,  632,  633,  634,  635,  636,  637,  638
  639,  640,  641,  642,  643,  644,  645,  646,  647,  648,  689,  690,  691,  692,  693,  694
  695,  696,  697,  698,  699,  700,  701,  702,  703,  704,  705,  706,  707,  708,  709,  710
  711,  712,  713,  714,  715,  716,  717,  718,  719,  720,  721,  722,  723,  724,  725,  726
  727,  728, 1907, 1908, 1909, 1910, 1911, 1912, 1913, 1914, 1915, 1916, 1917, 1918, 1919, 1920
 1921, 1922, 1923, 1924, 1925, 1926, 1927, 1928, 1929, 1930, 1931, 1932, 1933, 1934, 1935, 1936
 1937, 1938, 1939, 1940, 1941, 1942, 1943, 1944, 2491, 2492, 2493, 2494, 2495, 2496, 2497, 2498
 2499, 2500, 2501, 2502, 2503, 2504, 2505, 2506, 2507, 2508, 2509, 2510, 2511, 2512, 2513, 2514
 2515, 2516, 2517, 2518, 2519, 2520, 2521, 2522, 2523, 2524, 2525, 2526, 2527, 2528, 2795, 2796
 2797, 2798, 2799, 2800, 2801, 2802, 2803, 2804, 2805, 2806, 2807, 2808, 2809, 2810, 2811, 2812
 2813, 2814, 2815, 2816, 2817, 2818, 2819, 2820, 2821, 2822, 2823, 2824, 2825, 2826, 2827, 2828
 2829, 2830, 2831, 2832
*Elset, elset=JIAJU-SHANG
 1561, 1562, 1563, 1564, 1565, 1566, 1567, 1568, 1569, 1570, 1571, 1572, 1573, 1574, 1575, 1576
 1577, 1578, 1579, 1580, 1581, 1582, 1583, 1584, 1585, 1586, 1587, 1588, 1589, 1590, 1591, 1592
 1593, 1594, 1595, 1596, 1597, 1598, 1599, 1600, 1601, 1602, 1603, 1604, 1605, 1606, 1607, 1608
 1609, 1610, 1611, 1612, 1613, 1614, 1615, 1616, 1617, 1618, 1619, 1620, 2287, 2294, 2301, 2308
 2315, 2322, 2329, 2336, 2343, 2350, 2357, 2364, 2371, 2378, 2385, 2392, 2399, 2406, 2413, 2420
 2427, 2434, 2441, 2448, 2455, 2462, 2469, 2476, 2483, 2490, 2497, 2504, 2511, 2518, 2525, 2532
 2539, 2546, 2553, 2560, 2567, 2574, 2581, 2588, 2595, 2602, 2609, 2616, 2623, 2630, 2637, 2644
 2651, 2658, 2665, 2672, 2679, 2686, 2693, 2700, 3061, 3062, 3063, 3064, 3065, 3066, 3067, 3068
 3069, 3070, 3071, 3072, 3073, 3074, 3075, 3076, 3077, 3078, 3079, 3080, 3081, 3082, 3083, 3084
 3085, 3086, 3087, 3088, 3089, 3090, 3091, 3092, 3093, 3094, 3095, 3096, 3097, 3098, 3099, 3100
 3101, 3102, 3103, 3104, 3105, 3106, 3107, 3108, 3109, 3110, 3111, 3112, 3113, 3114, 3115, 3116
 3117, 3118, 3119, 3120
*Nset, nset=JIAJU-XIA
    3,    4,    6,    7,   10,   11,   19,   20,   66,   67,   68,   69,   70,   71,   72,   73
   74,   75,   76,   77,   78,   79,   80,   81,   82,   83,   84,  116,  117,  118,  119,  120
  121,  122,  123,  124,  125,  126,  127,  128,  129,  130,  131,  132,  133,  134,  141,  142
  145,  146,  155,  156,  203,  204,  205,  206,  207,  208,  209,  210,  211,  212,  213,  214
  215,  216,  217,  218,  219,  220,  221,  222,  223,  224,  225,  226,  227,  228,  229,  230
  231,  232,  233,  234,  235,  236,  237,  238,  239,  240,  339,  340,  341,  342,  343,  344
  345,  346,  347,  348,  349,  350,  351,  352,  353,  354,  355,  356,  357,  358,  359,  360
  361,  362,  363,  364,  365,  366,  367,  368,  369,  370,  371,  372,  373,  374,  375,  376
  377,  378, 1031, 1032, 1033, 1034, 1035, 1036, 1037, 1038, 1039, 1040, 1041, 1042, 1043, 1044
 1045, 1046, 1047, 1048, 1049, 1050, 1051, 1052, 1053, 1054, 1055, 1056, 1057, 1058, 1059, 1060
 1061, 1062, 1063, 1064, 1065, 1066, 1067, 1068, 1119, 1120, 1121, 1122, 1123, 1124, 1125, 1126
 1127, 1128, 1129, 1130, 1131, 1132, 1133, 1134, 1135, 1136, 1137, 1138, 1139, 1140, 1141, 1142
 1143, 1144, 1145, 1146, 1147, 1148, 1149, 1150, 1151, 1152, 1153, 1154, 1155, 1156, 1629, 1630
 1631, 1632, 1633, 1634, 1635, 1636, 1637, 1638, 1639, 1640, 1641, 1642, 1643, 1644, 1645, 1646
 1647, 1648, 1649, 1650, 1651, 1652, 1653, 1654, 1655, 1656, 1657, 1658, 1659, 1660, 1661, 1662
 1663, 1664, 1665, 1666
*Elset, elset=JIAJU-XIA
  121,  122,  123,  124,  125,  126,  127,  128,  129,  130,  131,  132,  133,  134,  135,  136
  137,  138,  139,  140,  261,  262,  263,  264,  265,  266,  267,  268,  269,  270,  271,  272
  273,  274,  275,  276,  277,  278,  279,  280,  401,  402,  403,  404,  405,  406,  407,  408
  409,  410,  411,  412,  413,  414,  415,  416,  417,  418,  419,  420,  427,  434,  441,  448
  455,  462,  469,  476,  483,  490,  497,  504,  511,  518,  525,  532,  539,  546,  553,  560
  567,  574,  581,  588,  595,  602,  609,  616,  623,  630,  637,  644,  651,  658,  665,  672
  679,  686,  693,  700,  707,  714,  721,  728,  735,  742,  749,  756,  763,  770,  777,  784
  791,  798,  805,  812,  819,  826,  833,  840, 1501, 1502, 1503, 1504, 1505, 1506, 1507, 1508
 1509, 1510, 1511, 1512, 1513, 1514, 1515, 1516, 1517, 1518, 1519, 1520, 1521, 1522, 1523, 1524
 1525, 1526, 1527, 1528, 1529, 1530, 1531, 1532, 1533, 1534, 1535, 1536, 1537, 1538, 1539, 1540
 1541, 1542, 1543, 1544, 1545, 1546, 1547, 1548, 1549, 1550, 1551, 1552, 1553, 1554, 1555, 1556
 1557, 1558, 1559, 1560
*Nset, nset=JIAJU-S-LOAD
   29,   30,   31,   32,  503,  504,  513,  514,  519,  520,  521,  522,  523,  524,  525,  526
  527,  528,  529,  530,  531,  532,  533,  534,  535,  536,  537,  538,  539,  540,  541,  542
  543,  544,  545,  546,  547,  548,  549,  550,  551,  552,  553,  554,  555,  556, 2251, 2252
 2253, 2254, 2255, 2256, 2257, 2258, 2259, 2260, 2261, 2262, 2263, 2264, 2265, 2266, 2267, 2268
 2269, 2270, 2271, 2272, 2273, 2274, 2275, 2276, 2277, 2278, 2279, 2280, 2281, 2282, 2283, 2284
 2285, 2286, 2287, 2288
*Elset, elset=JIAJU-S-LOAD, generate
 1985,  2280,     5
*Nset, nset=JIAJU-X-LOAD
   13,   14,   15,   16,  245,  246,  255,  256,  261,  262,  263,  264,  265,  266,  267,  268
  269,  270,  271,  272,  273,  274,  275,  276,  277,  278,  279,  280,  281,  282,  283,  284
  285,  286,  287,  288,  289,  290,  291,  292,  293,  294,  295,  296,  297,  298, 1401, 1402
 1403, 1404, 1405, 1406, 1407, 1408, 1409, 1410, 1411, 1412, 1413, 1414, 1415, 1416, 1417, 1418
 1419, 1420, 1421, 1422, 1423, 1424, 1425, 1426, 1427, 1428, 1429, 1430, 1431, 1432, 1433, 1434
 1435, 1436, 1437, 1438
*Elset, elset=JIAJU-X-LOAD, generate
  845,  1140,     5
*Nset, nset=OUTPUT
 4745,
** Section: Section-1-SET-3
*Solid Section, elset=SET-3, material=AL
,
*End Part
**  
*Part, name=MENGPI2
*Node
      1,   160.481506,   217.800003, 0.00317739998
      2,   160.481506,   355.600006, 0.0967700034
      3,  0.481494993,   355.600006,  0.106619999
      4,   32.4000015,   217.800003, -0.000593480014
      5,  0.481494993,   217.800003, 0.00329610007
      6,   160.481506,           0., -0.0913629979
      7,   160.481506,   57.7999992, -0.0851109996
      8,   32.4000015,   57.7999992, -0.0554069988
      9,  0.481494993,   57.7999992, -0.0702370033
     10,  0.481494993,           0., -0.0691070035
     11,   304.799988,   217.800003, 0.0390629992
     12,   304.799988,   355.600006,  0.117590003
     13,   304.799988,   57.7999992, -0.0208260007
     14,   304.799988,           0., -0.0190660004
     15,  -152.399994,  -355.600006,      0.10503
     16,  -152.399994,  -257.799988, 0.0209100004
     17,  -232.399994,  -177.800003, -0.0298229996
     18,  -304.799988,  -177.800003, 0.0191900004
     19,  -304.799988,  -355.600006,  0.130909994
     20,  -304.799988,           0., -0.0191559996
** ... 3960 like lines cut
*Element, type=S4R
   1,    1,   29,  570,   81
   2,   29,   30,  571,  570
   3,   30,   31,  572,  571
   4,   31,   32,  573,  572
   5,   32,   33,  574,  573
   6,   33,   34,  575,  574
   7,   34,   35,  576,  575
   8,   35,   36,  577,  576
   9,   36,   37,  578,  577
  10,   37,   38,  579,  578
  11,   38,   39,  580,  579
  12,   39,   40,  581,  580
  13,   40,   41,  582,  581
  14,   41,    2,   42,  582
  15,   81,  570,  583,   80
  16,  570,  571,  584,  583
  17,  571,  572,  585,  584
  18,  572,  573,  586,  585
  19,  573,  574,  587,  586
  20,  574,  575,  588,  587
** ... 3772 like lines cut
*Nset, nset=SET-1, generate
    1,  3980,     1
*Elset, elset=SET-1, generate
    1,  3792,     1
*Nset, nset=MENGPI2, generate
    1,  3980,     1
*Elset, elset=MENGPI2, generate
    1,  3792,     1
*Nset, nset=TOP
   2,   3,  12,  22,  42,  43,  44,  45,  46,  47,  48,  49,  50,  51,  52,  53
  54,  55,  56, 149, 150, 151, 152, 153, 154, 155, 156, 157, 158, 159, 160, 161
 326, 327, 328, 329, 330, 331, 332, 333, 334, 335, 336, 337, 338, 339, 340, 341
 342, 343, 344, 345, 346, 347, 348, 349, 350, 351, 352, 353
*Elset, elset=TOP
   14,   28,   42,   56,   70,   84,   98,  112,  126,  140,  154,  168,  182,  196,  210,  224
  503,  504,  505,  506,  507,  508,  509,  510,  511,  512,  513,  514,  515,  516, 2057, 2058
 2059, 2060, 2061, 2062, 2063, 2064, 2065, 2066, 2067, 2068, 2069, 2070, 2071, 2072, 2073, 2074
 2075, 2076, 2077, 2078, 2079, 2080, 2081, 2082, 2083, 2084, 2085
*Nset, nset=BOTTOM
  15,  19,  24,  25, 223, 224, 225, 226, 227, 228, 229, 230, 231, 232, 233, 234
 235, 422, 423, 424, 425, 426, 427, 428, 429, 430, 431, 432, 433, 434, 435, 436
 437, 438, 439, 440, 441, 442, 443, 444, 445, 446, 447, 448, 449, 450, 504, 505
 506, 507, 508, 509, 510, 511, 512, 513, 514, 515, 516
*Elset, elset=BOTTOM
  825,  826,  827,  828,  829,  830,  831,  981,  991, 1001, 1011, 1021, 1031, 1041, 3106, 3107
 3108, 3109, 3110, 3111, 3112, 3113, 3114, 3115, 3116, 3117, 3118, 3119, 3120, 3121, 3122, 3123
 3124, 3125, 3126, 3127, 3128, 3129, 3130, 3131, 3132, 3133, 3134, 3135, 3196, 3207, 3218, 3229
 3240, 3251, 3262, 3273, 3274, 3275, 3276, 3277, 3278, 3279
** Section: Section-22-SET-1
*Shell Section, elset=SET-1, material=AL
2.5, 5
*End Part
**  
*Part, name=WANGGE
*Node
      1,    153.62352,   57.7999992,           0.
      2,    153.62352,   57.7999992,          18.
      3,   116.077919,   4.47363043,          18.
      4,   116.077919,   4.47363043,           0.
      5,   34.4011421,   57.7999992,           0.
      6,   34.4011421,   57.7999992,          18.
      7,   61.2190933,   18.7240639,          18.
      8,   61.2190933,   18.7240639,           0.
      9,   4.80408096,   57.7999992,           0.
     10,   4.80408096,   57.7999992,          18.
     11,   5.45825768,   56.0872383,          18.
     12,   5.45825768,   56.0872383,           0.
     13,   29.2774258,   217.800003,          18.
     14,   29.2774258,   217.800003,           0.
     15,   51.6925507,   273.970337,           0.
     16,   51.6925507,   273.970337,          18.
     17,   3.46101093,   57.7999992,          18.
     18,   3.46101093,   57.7999992,           0.
     19,  -94.5089035,  -122.585678,          18.
     20,  -94.5089035,  -122.585678,           0.
** ... 7272 like lines cut
*Element, type=S4R
   1,    1,  165, 3811,  188
   2,  165,  166, 3812, 3811
   3,  166,    2,  167, 3812
   4,  188, 3811, 3813,  187
   5, 3811, 3812, 3814, 3813
   6, 3812,  167,  168, 3814
   7,  187, 3813, 3815,  186
   8, 3813, 3814, 3816, 3815
   9, 3814,  168,  169, 3816
  10,  186, 3815, 3817,  185
  11, 3815, 3816, 3818, 3817
  12, 3816,  169,  170, 3818
  13,  185, 3817, 3819,  184
  14, 3817, 3818, 3820, 3819
  15, 3818,  170,  171, 3820
  16,  184, 3819, 3821,  183
  17, 3819, 3820, 3822, 3821
  18, 3820,  171,  172, 3822
  19,  183, 3821, 3823,  182
  20, 3821, 3822, 3824, 3823
** ... 5479 like lines cut
*Elset, elset=Set-1, generate
 5236,  5358,     1
*Elset, elset=Set-2, generate
 4825,  5181,     1
*Elset, elset=Set-3, generate
 4420,  4776,     1
*Elset, elset=Set-4
  214,  215,  216,  217,  218,  219,  220,  221,  222,  223,  224,  225,  226,  227,  228,  229
  230,  231,  232,  233,  234,  235,  236,  237,  238,  239,  240,  241,  242,  243,  244,  245
  246,  247,  248,  249,  250,  251,  252,  253,  254,  255,  256,  257,  258,  259,  260,  261
  262,  263,  264,  265,  266,  267,  268,  269,  270,  271,  272,  273,  274,  275,  276,  277
  278,  279,  280,  281,  282,  283,  284,  285,  286,  287,  288,  289,  290,  291,  292,  293
  294,  295,  296,  297,  298,  299,  300,  301,  302,  303,  304,  305,  306,  307,  308,  309
  310,  311,  312,  313,  314,  315,  316,  317,  318,  319,  320,  321,  322,  323,  324, 4258
 4259, 4260, 4261, 4262, 4263, 4264, 4265, 4266, 4267, 4268, 4269, 4270, 4271, 4272, 4273, 4274
 4275, 4276, 4277, 4278, 4279, 4280, 4281, 4282, 4283, 4284, 4285, 4286, 4287, 4288, 4289, 4290
 4291, 4292, 4293, 4294, 4295, 4296, 4297, 4298, 4299, 4300, 4301, 4302, 4303, 4304, 4305, 4306
 4307, 4308, 4309, 4310, 4311, 4312, 4313, 4314, 4315, 4316, 4317, 4318, 4319, 4320, 4321, 4322
 4323, 4324, 4325, 4326, 4327, 4328, 4329, 4330, 4331, 4332, 4333, 4334, 4335, 4336, 4337, 4338
 4339, 4340, 4341, 4342, 4343, 4344, 4345, 4346, 4347, 4348, 4349, 4350, 4351, 4352, 4353, 4354
 4355, 4356, 4357, 4358, 4359, 4360, 4361, 4362, 4363, 4364, 4365, 4366, 4367, 4368, 4369, 4370
 4371, 4372, 4373, 4374, 5449, 5450, 5451, 5452, 5453, 5454, 5455, 5456, 5457, 5458, 5459, 5460
 5461, 5462, 5463, 5464, 5465, 5466, 5467, 5468, 5469, 5470, 5471, 5472, 5473, 5474, 5475, 5476
 5477, 5478, 5479, 5480, 5481, 5482, 5483, 5484, 5485, 5486, 5487, 5488, 5489, 5490, 5491, 5492
 5493, 5494, 5495, 5496, 5497, 5498, 5499
*Elset, elset=Set-5
   94,   95,   96,   97,   98,   99,  100,  101,  102,  103,  104,  105,  106,  107,  108,  109
  110,  111,  112,  113,  114,  115,  116,  117,  118,  119,  120,  121,  122,  123,  124,  125
  126,  127,  128,  129,  130,  131,  132,  133,  134,  135,  136,  137,  138,  139,  140,  141
  142,  143,  144,  145,  146,  147,  148,  149,  150,  151,  152,  153,  154,  155,  156,  157
  158,  159,  160,  161,  162,  163,  164,  165,  166,  167,  168,  169,  170,  171,  172,  173
  174,  175,  176,  177,  178,  179,  180,  181,  182,  183,  184,  185,  186,  187,  188,  189
  190,  191,  192,  193,  194,  195,  196,  197,  198,  199,  200,  201,  202,  203,  204,  205
  206,  207,  208,  209,  210,  211,  212,  213, 4096, 4097, 4098, 4099, 4100, 4101, 4102, 4103
 4104, 4105, 4106, 4107, 4108, 4109, 4110, 4111, 4112, 4113, 4114, 4115, 4116, 4117, 4118, 4119
 4120, 4121, 4122, 4123, 4124, 4125, 4126, 4127, 4128, 4129, 4130, 4131, 4132, 4133, 4134, 4135
 4136, 4137, 4138, 4139, 4140, 4141, 4142, 4143, 4144, 4145, 4146, 4147, 4148, 4149, 4150, 4151
 4152, 4153, 4154, 4155, 4156, 4157, 4158, 4159, 4160, 4161, 4162, 4163, 4164, 4165, 4166, 4167
 4168, 4169, 4170, 4171, 4172, 4173, 4174, 4175, 4176, 4177, 4178, 4179, 4180, 4181, 4182, 4183
 4184, 4185, 4186, 4187, 4188, 4189, 4190, 4191, 4192, 4193, 4194, 4195, 4196, 4197, 4198, 4199
 4200, 4201, 4202, 4203, 4204, 4205, 4206, 4207, 4208, 4209, 4210, 4211, 4212, 4213, 4214, 4215
 5392, 5393, 5394, 5395, 5396, 5397, 5398, 5399, 5400, 5401, 5402, 5403, 5404, 5405, 5406, 5407
 5408, 5409, 5410, 5411, 5412, 5413, 5414, 5415, 5416, 5417, 5418, 5419, 5420, 5421, 5422, 5423
 5424, 5425, 5426, 5427, 5428, 5429, 5430, 5431, 5432, 5433, 5434, 5435, 5436, 5437, 5438, 5439
 5440, 5441, 5442, 5443, 5444, 5445, 5446, 5447, 5448
*Elset, elset=Set-6, generate
 3700,  4059,     1
*Elset, elset=Set-7, generate
 3307,  3666,     1
*Elset, elset=Set-8, generate
 2914,  3273,     1
*Elset, elset=Set-9
   58,   59,   60,   61,   62,   63,   64,   65,   66,   67,   68,   69,   70,   71,   72,   73
   74,   75,   76,   77,   78,   79,   80,   81,   82,   83,   84,   85,   86,   87,   88,   89
   90, 2632, 2633, 2634, 2635, 2636, 2637, 2638, 2639, 2640, 2641, 2642, 2643, 2644, 2645, 2646
 2647, 2648, 2649, 2650, 2651, 2652, 2653, 2654, 2655, 2656, 2657, 2658, 2659, 2660, 2661, 2662
 2663, 2664, 2665, 2666, 2667, 2668, 2669, 2670, 2671, 2672, 2673, 2674, 2675, 2676, 2677, 2678
 2679, 2680, 2681, 2682, 2683, 2684, 2685, 2686, 2687, 2688, 2689, 2690, 2691, 2692, 2693, 2694
 2695, 2696, 2697, 2698, 2699, 2700, 2701, 2702, 2703, 2704, 2705, 2706, 2707, 2708, 2709, 2710
 2711, 2712, 2713, 2714, 2715, 2716, 2717, 2718, 2719, 2720, 2721, 2722, 2723, 2724, 2725, 2726
 2727, 2728, 2729, 2730, 2731, 2732, 2733, 2734, 2735, 2736, 2737, 2738, 2739, 2740, 2741, 2742
 2743, 2744, 2745, 2746, 2747, 2748, 2749, 2750, 2751, 2752, 2753, 2754, 2755, 2756, 2757, 2758
 2759, 2760, 2761, 2762, 2763, 2764, 2765, 2766, 2767, 2768, 2769, 2770, 2771, 2772, 2773, 2774
 2775, 2776, 2777, 2778, 2779, 2780, 2781, 2782, 2783, 2784, 2785, 2786, 2787, 2788, 2789, 2790
 2791, 2792, 2793, 2794, 2795, 2796, 2797, 2798, 2799, 2800, 2801, 2802, 2803, 2804, 2805, 2806
 2807, 2808, 2809, 2810, 2811, 2812, 2813, 2814, 2815, 2816, 2817, 2818, 2819, 2820, 2821, 2822
 2823, 2824, 2825, 2826, 2827, 2828, 2829, 2830, 2831, 2832, 2833, 2834, 2835, 2836, 2837, 2838
 2839, 2840, 2841, 2842, 2843, 2844, 2845, 2846, 2847, 2848, 2849, 2850, 2851, 2852, 2853, 2854
 2855, 2856, 2857, 2858, 2859, 2860, 2861, 2862, 2863, 2864, 2865, 2866, 2867, 2868, 2869, 2870
 2871, 2872, 2873, 2874, 2875, 2876, 2877, 2878, 2879, 2880
*Elset, elset=Set-10
   34,   35,   36,   37,   38,   39,   40,   41,   42,   43,   44,   45,   46,   47,   48,   49
   50,   51,   52,   53,   54,   55,   56,   57, 2323, 2324, 2325, 2326, 2327, 2328, 2329, 2330
 2331, 2332, 2333, 2334, 2335, 2336, 2337, 2338, 2339, 2340, 2341, 2342, 2343, 2344, 2345, 2346
 2347, 2348, 2349, 2350, 2351, 2352, 2353, 2354, 2355, 2356, 2357, 2358, 2359, 2360, 2361, 2362
 2363, 2364, 2365, 2366, 2367, 2368, 2369, 2370, 2371, 2372, 2373, 2374, 2375, 2376, 2377, 2378
 2379, 2380, 2381, 2382, 2383, 2384, 2385, 2386, 2387, 2388, 2389, 2390, 2391, 2392, 2393, 2394
 2395, 2396, 2397, 2398, 2399, 2400, 2401, 2402, 2403, 2404, 2405, 2406, 2407, 2408, 2409, 2410
 2411, 2412, 2413, 2414, 2415, 2416, 2417, 2418, 2419, 2420, 2421, 2422, 2423, 2424, 2425, 2426
 2427, 2428, 2429, 2430, 2431, 2432, 2433, 2434, 2435, 2436, 2437, 2438, 2439, 2440, 2441, 2442
 2443, 2444, 2445, 2446, 2447, 2448, 2449, 2450, 2451, 2452, 2453, 2454, 2455, 2456, 2457, 2458
 2459, 2460, 2461, 2462, 2463, 2464, 2465, 2466, 2467, 2468, 2469, 2470, 2471, 2472, 2473, 2474
 2475, 2476, 2477, 2478, 2479, 2480, 2481, 2482, 2483, 2484, 2485, 2486, 2487, 2488, 2489, 2490
 2491, 2492, 2493, 2494, 2495, 2496, 2497, 2498, 2499, 2500, 2501, 2502, 2503, 2504, 2505, 2506
 2507, 2508, 2509, 2510, 2511, 2512, 2513, 2514, 2515, 2516, 2517, 2518, 2519, 2520, 2521, 2522
 2523, 2524, 2525, 2526, 2527, 2528, 2529, 2530, 2531, 2532, 2533, 2534, 2535, 2536, 2537, 2538
 2539, 2540, 2541, 2542, 2543, 2544, 2545, 2546, 2547, 2548, 2549, 2550, 2551, 2552, 2553, 2554
 2555, 2556, 2557, 2558, 2559, 2560, 2561, 2562, 2563, 2564, 2565, 2566, 2567, 2568, 2569, 2570
 2571, 2572, 2573, 2574, 2575, 2576, 2577, 2578, 2579, 2580
*Elset, elset=Set-11
    1,    2,    3,    4,    5,    6,    7,    8,    9,   10,   11,   12,   13,   14,   15,   16
   17,   18,   19,   20,   21,   22,   23,   24,   25,   26,   27,   28,   29,   30,   31,   32
   33, 2023, 2024, 2025, 2026, 2027, 2028, 2029, 2030, 2031, 2032, 2033, 2034, 2035, 2036, 2037
 2038, 2039, 2040, 2041, 2042, 2043, 2044, 2045, 2046, 2047, 2048, 2049, 2050, 2051, 2052, 2053
 2054, 2055, 2056, 2057, 2058, 2059, 2060, 2061, 2062, 2063, 2064, 2065, 2066, 2067, 2068, 2069
 2070, 2071, 2072, 2073, 2074, 2075, 2076, 2077, 2078, 2079, 2080, 2081, 2082, 2083, 2084, 2085
 2086, 2087, 2088, 2089, 2090, 2091, 2092, 2093, 2094, 2095, 2096, 2097, 2098, 2099, 2100, 2101
 2102, 2103, 2104, 2105, 2106, 2107, 2108, 2109, 2110, 2111, 2112, 2113, 2114, 2115, 2116, 2117
 2118, 2119, 2120, 2121, 2122, 2123, 2124, 2125, 2126, 2127, 2128, 2129, 2130, 2131, 2132, 2133
 2134, 2135, 2136, 2137, 2138, 2139, 2140, 2141, 2142, 2143, 2144, 2145, 2146, 2147, 2148, 2149
 2150, 2151, 2152, 2153, 2154, 2155, 2156, 2157, 2158, 2159, 2160, 2161, 2162, 2163, 2164, 2165
 2166, 2167, 2168, 2169, 2170, 2171, 2172, 2173, 2174, 2175, 2176, 2177, 2178, 2179, 2180, 2181
 2182, 2183, 2184, 2185, 2186, 2187, 2188, 2189, 2190, 2191, 2192, 2193, 2194, 2195, 2196, 2197
 2198, 2199, 2200, 2201, 2202, 2203, 2204, 2205, 2206, 2207, 2208, 2209, 2210, 2211, 2212, 2213
 2214, 2215, 2216, 2217, 2218, 2219, 2220, 2221, 2222, 2223, 2224, 2225, 2226, 2227, 2228, 2229
 2230, 2231, 2232, 2233, 2234, 2235, 2236, 2237, 2238, 2239, 2240, 2241, 2242, 2243, 2244, 2245
 2246, 2247, 2248, 2249, 2250, 2251, 2252, 2253, 2254, 2255, 2256, 2257, 2258, 2259, 2260, 2261
 2262, 2263, 2264, 2265, 2266, 2267, 2268, 2269, 2270, 2271
*Elset, elset=Set-12, generate
 1594,  1953,     1
*Elset, elset=Set-13, generate
 1165,  1527,     1
*Elset, elset=Set-14, generate
  745,  1101,     1
*Elset, elset=Set-15, generate
 325,  681,    1
*Elset, elset=Set-16
   91,   92,   93,  703,  704,  705,  706,  707,  708,  709,  710,  711,  712,  713,  714,  715
  716,  717,  718,  719,  720,  721,  722,  723, 1123, 1124, 1125, 1126, 1127, 1128, 1129, 1130
 1131, 1132, 1133, 1134, 1135, 1136, 1137, 1138, 1139, 1140, 1141, 1142, 1143, 1549, 1550, 1551
 1552, 1553, 1554, 1555, 1556, 1557, 1558, 1559, 1560, 1561, 1562, 1563, 1564, 1565, 1566, 1567
 1568, 1569, 1975, 1976, 1977, 1978, 1979, 1980, 1981, 1982, 1983, 1984, 1985, 1986, 1987, 1988
 1989, 1990, 1991, 1992, 1993, 1994, 1995, 1996, 1997, 1998, 2272, 2273, 2274, 2275, 2276, 2277
 2278, 2279, 2280, 2281, 2282, 2283, 2284, 2285, 2286, 2287, 2288, 2289, 2290, 2291, 2292, 2293
 2294, 2295, 2296, 2297, 2298, 2299, 2300, 2301, 2581, 2582, 2583, 2584, 2585, 2586, 2587, 2588
 2589, 2590, 2591, 2592, 2593, 2594, 2595, 2596, 2597, 2598, 2599, 2600, 2601, 2602, 2603, 2604
 2605, 2606, 2607, 2608, 2609, 2610, 2611, 2612, 2613, 2881, 2882, 2883, 2884, 2885, 2886, 2887
 2888, 2889, 2890, 2891, 2892, 2893, 2894, 2895, 3274, 3275, 3276, 3277, 3278, 3279, 3280, 3281
 3282, 3283, 3284, 3285, 3286, 3287, 3288, 3667, 3668, 3669, 3670, 3671, 3672, 3673, 3674, 3675
 3676, 3677, 3678, 3679, 3680, 3681, 4060, 4061, 4062, 4063, 4064, 4065, 4066, 4067, 4068, 4069
 4070, 4071, 4072, 4073, 4074, 4075, 4076, 4077, 4216, 4217, 4218, 4219, 4220, 4221, 4222, 4223
 4224, 4225, 4226, 4227, 4228, 4229, 4230, 4231, 4232, 4233, 4234, 4235, 4236, 4375, 4376, 4377
 4378, 4379, 4380, 4381, 4382, 4383, 4384, 4385, 4386, 4387, 4388, 4389, 4390, 4391, 4392, 4393
 4394, 4395, 4777, 4778, 4779, 4780, 4781, 4782, 4783, 4784, 4785, 4786, 4787, 4788, 4789, 4790
 4791, 4792, 4793, 4794, 4795, 4796, 4797, 4798, 4799, 4800, 5182, 5183, 5184, 5185, 5186, 5187
 5188, 5189, 5190, 5191, 5192, 5193, 5194, 5195, 5196, 5197, 5198, 5199, 5200, 5201, 5202, 5203
 5204, 5205, 5206, 5207, 5208, 5362, 5363, 5364, 5365, 5366, 5367, 5368, 5369, 5370, 5371, 5372
 5373, 5374, 5375, 5376
*Elset, elset=Set-17
  724,  725,  726,  727,  728,  729,  730,  731,  732,  733,  734,  735,  736,  737,  738,  739
  740,  741,  742,  743,  744, 1144, 1145, 1146, 1147, 1148, 1149, 1150, 1151, 1152, 1153, 1154
 1155, 1156, 1157, 1158, 1159, 1160, 1161, 1162, 1163, 1164, 1570, 1571, 1572, 1573, 1574, 1575
 1576, 1577, 1578, 1579, 1580, 1581, 1582, 1583, 1584, 1585, 1586, 1587, 1588, 1589, 1590, 1591
 1592, 1593, 1999, 2000, 2001, 2002, 2003, 2004, 2005, 2006, 2007, 2008, 2009, 2010, 2011, 2012
 2013, 2014, 2015, 2016, 2017, 2018, 2019, 2020, 2021, 2022, 2302, 2303, 2304, 2305, 2306, 2307
 2308, 2309, 2310, 2311, 2312, 2313, 2314, 2315, 2316, 2317, 2318, 2319, 2320, 2321, 2322, 2614
 2615, 2616, 2617, 2618, 2619, 2620, 2621, 2622, 2623, 2624, 2625, 2626, 2627, 2628, 2629, 2630
 2631, 2896, 2897, 2898, 2899, 2900, 2901, 2902, 2903, 2904, 2905, 2906, 2907, 2908, 2909, 2910
 2911, 2912, 2913, 3289, 3290, 3291, 3292, 3293, 3294, 3295, 3296, 3297, 3298, 3299, 3300, 3301
 3302, 3303, 3304, 3305, 3306, 3682, 3683, 3684, 3685, 3686, 3687, 3688, 3689, 3690, 3691, 3692
 3693, 3694, 3695, 3696, 3697, 3698, 3699, 4078, 4079, 4080, 4081, 4082, 4083, 4084, 4085, 4086
 4087, 4088, 4089, 4090, 4091, 4092, 4093, 4094, 4095, 4237, 4238, 4239, 4240, 4241, 4242, 4243
 4244, 4245, 4246, 4247, 4248, 4249, 4250, 4251, 4252, 4253, 4254, 4255, 4256, 4257, 4396, 4397
 4398, 4399, 4400, 4401, 4402, 4403, 4404, 4405, 4406, 4407, 4408, 4409, 4410, 4411, 4412, 4413
 4414, 4415, 4416, 4417, 4418, 4419, 4801, 4802, 4803, 4804, 4805, 4806, 4807, 4808, 4809, 4810
 4811, 4812, 4813, 4814, 4815, 4816, 4817, 4818, 4819, 4820, 4821, 4822, 4823, 4824, 5209, 5210
 5211, 5212, 5213, 5214, 5215, 5216, 5217, 5218, 5219, 5220, 5221, 5222, 5223, 5224, 5225, 5226
 5227, 5228, 5229, 5230, 5231, 5232, 5233, 5234, 5235, 5377, 5378, 5379, 5380, 5381, 5382, 5383
 5384, 5385, 5386, 5387, 5388, 5389, 5390, 5391
*Elset, elset=Set-18
  682,  683,  684,  685,  686,  687,  688,  689,  690,  691,  692,  693,  694,  695,  696,  697
  698,  699,  700,  701,  702, 1102, 1103, 1104, 1105, 1106, 1107, 1108, 1109, 1110, 1111, 1112
 1113, 1114, 1115, 1116, 1117, 1118, 1119, 1120, 1121, 1122, 1528, 1529, 1530, 1531, 1532, 1533
 1534, 1535, 1536, 1537, 1538, 1539, 1540, 1541, 1542, 1543, 1544, 1545, 1546, 1547, 1548, 1954
 1955, 1956, 1957, 1958, 1959, 1960, 1961, 1962, 1963, 1964, 1965, 1966, 1967, 1968, 1969, 1970
 1971, 1972, 1973, 1974, 5359, 5360, 5361
** Section: qujin_zong_11
*Shell Section, elset=Set-11, material=AL
1.78, 5
** Section: qujin_zong_10
*Shell Section, elset=Set-10, material=AL
1.87, 5
** Section: qujin_zong_9
*Shell Section, elset=Set-9, material=AL
2.05, 5
** Section: qujin_heng_1
*Shell Section, elset=Set-16, material=AL
0.83, 5
** Section: qujin_zong_5
*Shell Section, elset=Set-5, material=AL
2.45, 5
** Section: qujin_zong_4
*Shell Section, elset=Set-4, material=AL
2.42, 5
** Section: qujin_zong_15
*Shell Section, elset=Set-15, material=AL
1.16, 5
** Section: qujin_heng_3
*Shell Section, elset=Set-18, material=AL
1.2, 5
** Section: qujin_heng_2
*Shell Section, elset=Set-17, material=AL
0.79, 5
** Section: qujin_zong_14
*Shell Section, elset=Set-14, material=AL
1.33, 5
** Section: qujin_zong_13
*Shell Section, elset=Set-13, material=AL
1.45, 5
** Section: qujin_zong_12
*Shell Section, elset=Set-12, material=AL
1.61, 5
** Section: qujin_zong_8
*Shell Section, elset=Set-8, material=AL
2.33, 5
** Section: qujin_zong_7
*Shell Section, elset=Set-7, material=AL
2.44, 5
** Section: qujin_zong_6
*Shell Section, elset=Set-6, material=AL
2.49, 5
** Section: qujin_zong_3
*Shell Section, elset=Set-3, material=AL
2.29, 5
** Section: qujin_zong_2
*Shell Section, elset=Set-2, material=AL
2.07, 5
** Section: qujin_zong_1
*Shell Section, elset=Set-1, material=AL
1.8, 5
*End Part
**  
**
** ASSEMBLY
**
*Assembly, name=Assembly
**  
*Instance, name=MENGPI2-1, part=MENGPI2
          0.,           0.,         -2.5
*End Instance
**  
*Instance, name=JIAJU-1, part=JIAJU
          0.,           0.,         -2.5
*End Instance
**  
*Instance, name=BIAN-1, part=BIAN
          0.,           0.,         -2.5
*End Instance
**  
*Instance, name=WANGGE-1, part=WANGGE
*End Instance
**  
*Node
      1,           0.,   515.599976,           9.
*Nset, nset=BIAN_DI, instance=BIAN-1
   3,   4,   6,   8,   9,  12,  14,  15,  18,  21,  22,  24,  97,  98,  99, 100
 101, 102, 103, 104, 105, 106, 107, 108, 109, 110, 111, 112, 113, 114, 115, 116
 117, 118, 119, 120, 121, 122, 123, 124, 125, 126, 127, 128, 129, 130, 131, 132
 133, 134, 135, 136, 137, 138, 139, 140, 141, 142, 143, 144, 145, 146, 147, 148
 149, 150, 151, 152, 153, 154, 155, 156, 157, 158, 159, 160, 161, 162, 163, 164
 165, 166, 231, 232, 233, 234, 235, 236, 237, 238, 239, 240, 241, 242, 243, 244
 245, 246, 247, 248, 249, 250, 251, 252, 253, 254, 255, 256, 257, 258, 259, 260
 261, 262, 263, 264, 265, 266, 267, 268, 269, 270, 271, 272, 273, 274, 275, 276
 277, 278, 279, 280, 281, 282, 283, 284, 285, 286, 287, 288, 289, 290, 363, 364
 365, 366, 367, 368, 369, 370, 371, 372, 373, 374, 375, 376, 377, 378, 379, 380
 381, 382, 383, 384, 385, 386, 387, 388, 389, 390, 391, 392, 393, 394, 395, 396
 397, 398, 399, 400, 401, 402, 403, 404, 405, 406, 407, 408, 409, 410, 411, 412
 413, 414, 415, 416, 417, 418, 419, 420, 421, 422, 423, 424, 425, 426, 427, 428
 429, 430, 431, 432, 493, 494, 495, 496, 497, 498, 499, 500, 501, 502, 503, 504
 505, 506, 507, 508, 509, 510, 511, 512, 513, 514, 515, 516, 517, 518, 519, 520
 521, 522, 523, 524, 525, 526, 527, 528, 529, 530, 531, 532, 533, 534, 535, 536
 537, 538, 539, 540, 541, 542, 543, 544, 545, 546, 547, 548, 549, 550, 551, 552
 581, 582, 583, 584, 585, 586, 587, 588, 589, 590, 591, 592, 593, 594, 595, 596
 597, 598, 599, 600, 601, 602, 603, 604, 605, 606, 607, 608, 609, 610, 611, 612
 613, 614, 615, 616, 617, 618, 619, 620, 621, 622, 623, 624, 625, 626, 627, 628
** ... 4 like lines cut
*Elset, elset=BIAN_DI, instance=BIAN-1
  143,  144,  145,  146,  147,  148,  149,  150,  151,  152,  153,  154,  155,  156,  157,  158
  159,  160,  161,  162,  163,  164,  165,  166,  167,  168,  169,  170,  171,  172,  173,  174
  175,  176,  177,  178,  179,  180,  181,  182,  183,  184,  185,  186,  187,  188,  189,  190
  191,  192,  193,  194,  195,  196,  197,  198,  199,  200,  201,  202,  203,  204,  205,  206
  207,  208,  209,  210,  211,  212,  213,  336,  337,  338,  339,  340,  341,  342,  343,  344
  345,  346,  347,  348,  349,  350,  351,  352,  353,  354,  355,  356,  357,  358,  359,  360
  361,  362,  363,  364,  365,  366,  367,  368,  369,  370,  371,  372,  373,  374,  375,  376
  377,  378,  379,  380,  381,  382,  383,  384,  385,  386,  387,  388,  389,  390,  391,  392
  393,  394,  395,  396,  539,  540,  541,  542,  543,  544,  545,  546,  547,  548,  549,  550
  551,  552,  553,  554,  555,  556,  557,  558,  559,  560,  561,  562,  563,  564,  565,  566
  567,  568,  569,  570,  571,  572,  573,  574,  575,  576,  577,  578,  579,  580,  581,  582
  583,  584,  585,  586,  587,  588,  589,  590,  591,  592,  593,  594,  595,  596,  597,  598
  599,  600,  601,  602,  603,  604,  605,  606,  607,  608,  609,  732,  733,  734,  735,  736
  737,  738,  739,  740,  741,  742,  743,  744,  745,  746,  747,  748,  749,  750,  751,  752
  753,  754,  755,  756,  757,  758,  759,  760,  761,  762,  763,  764,  765,  766,  767,  768
  769,  770,  771,  772,  773,  774,  775,  776,  777,  778,  779,  780,  781,  782,  783,  784
  785,  786,  787,  788,  789,  790,  791,  792,  793,  796,  799,  802,  805,  808,  811,  814
  817,  820,  823,  826,  829,  832,  835,  838,  841,  844,  847,  850,  853,  856,  859,  862
  865,  870,  873,  876,  879,  882,  885,  888,  891,  894,  897,  900,  903,  906,  909,  912
  915,  918,  921,  924,  927,  930,  933,  936,  939,  942,  945,  948,  951,  984,  985,  986
** ... 4 like lines cut
*Nset, nset=MENGPICE, instance=JIAJU-1
    3,    4,    6,    7,   10,   11,   19,   20,   21,   22,   23,   24,   34,   35,   39,   40
   66,   67,   68,   69,   70,   71,   72,   73,   74,   75,   76,   77,   78,   79,   80,   81
   82,   83,   84,  116,  117,  118,  119,  120,  121,  122,  123,  124,  125,  126,  127,  128
  129,  130,  131,  132,  133,  134,  141,  142,  145,  146,  155,  156,  203,  204,  205,  206
  207,  208,  209,  210,  211,  212,  213,  214,  215,  216,  217,  218,  219,  220,  221,  222
  223,  224,  225,  226,  227,  228,  229,  230,  231,  232,  233,  234,  235,  236,  237,  238
  239,  240,  339,  340,  341,  342,  343,  344,  345,  346,  347,  348,  349,  350,  351,  352
  353,  354,  355,  356,  357,  358,  359,  360,  361,  362,  363,  364,  365,  366,  367,  368
  369,  370,  371,  372,  373,  374,  375,  376,  377,  378,  391,  392,  393,  394,  395,  396
  397,  398,  399,  400,  401,  402,  403,  404,  405,  406,  407,  408,  409,  410,  411,  412
  413,  414,  415,  416,  417,  418,  419,  420,  421,  422,  423,  424,  425,  426,  427,  428
  429,  430,  431,  432,  563,  564,  611,  612,  613,  614,  615,  616,  617,  618,  619,  620
  621,  622,  623,  624,  625,  626,  627,  628,  629,  630,  631,  632,  633,  634,  635,  636
  637,  638,  639,  640,  641,  642,  643,  644,  645,  646,  647,  648,  689,  690,  691,  692
  693,  694,  695,  696,  697,  698,  699,  700,  701,  702,  703,  704,  705,  706,  707,  708
  709,  710,  711,  712,  713,  714,  715,  716,  717,  718,  719,  720,  721,  722,  723,  724
  725,  726,  727,  728, 1031, 1032, 1033, 1034, 1035, 1036, 1037, 1038, 1039, 1040, 1041, 1042
 1043, 1044, 1045, 1046, 1047, 1048, 1049, 1050, 1051, 1052, 1053, 1054, 1055, 1056, 1057, 1058
 1059, 1060, 1061, 1062, 1063, 1064, 1065, 1066, 1067, 1068, 1119, 1120, 1121, 1122, 1123, 1124
 1125, 1126, 1127, 1128, 1129, 1130, 1131, 1132, 1133, 1134, 1135, 1136, 1137, 1138, 1139, 1140
** ... 11 like lines cut
*Nset, nset=MENGPICE, instance=BIAN-1
    1,    2,    3,    4,    5,    6,    7,    8,   25,   26,   27,   28,   29,   30,   31,   32
   33,   34,   35,   36,   37,   38,   39,   40,   41,   42,   43,   44,   45,   46,   47,   48
   49,   50,   51,   52,   53,   54,   55,   56,   57,   58,   59,   60,   61,   62,   63,   64
   65,   66,   67,   68,   69,   70,   71,   72,   73,   74,   75,   76,   77,   78,   79,   80
   81,   82,   83,   84,   85,   86,   87,   88,   89,   90,   91,   92,   93,   94,   95,   96
   97,   98,   99,  100,  101,  102,  103,  104,  105,  106,  107,  108,  109,  110,  111,  112
  113,  114,  115,  116,  117,  118,  119,  120,  121,  122,  123,  124,  125,  126,  127,  128
  129,  130,  131,  132,  133,  134,  135,  136,  137,  138,  139,  140,  141,  142,  143,  144
  145,  146,  147,  148,  149,  150,  151,  152,  153,  154,  155,  156,  157,  158,  159,  160
  161,  162,  163,  164,  165,  166,  167,  168,  229,  230,  291,  292,  293,  294,  295,  296
  297,  298,  299,  300,  301,  302,  303,  304,  305,  306,  307,  308,  309,  310,  311,  312
  313,  314,  315,  316,  317,  318,  319,  320,  321,  322,  323,  324,  325,  326,  327,  328
  329,  330,  331,  332,  333,  334,  335,  336,  337,  338,  339,  340,  341,  342,  343,  344
  345,  346,  347,  348,  349,  350,  351,  352,  353,  354,  355,  356,  357,  358,  359,  360
  361,  362,  363,  364,  365,  366,  367,  368,  369,  370,  371,  372,  373,  374,  375,  376
  377,  378,  379,  380,  381,  382,  383,  384,  385,  386,  387,  388,  389,  390,  391,  392
  393,  394,  395,  396,  397,  398,  399,  400,  401,  402,  403,  404,  405,  406,  407,  408
  409,  410,  411,  412,  413,  414,  415,  416,  417,  418,  419,  420,  421,  422,  423,  424
  425,  426,  427,  428,  429,  430,  431,  432,  781,  782,  783,  784,  785,  786,  787,  788
  789,  790,  791,  792,  793,  794,  795,  796,  797,  798,  799,  800,  801,  802,  803,  804
** ... 16 like lines cut
*Elset, elset=MENGPICE, instance=JIAJU-1
  121,  122,  123,  124,  125,  126,  127,  128,  129,  130,  131,  132,  133,  134,  135,  136
  137,  138,  139,  140,  261,  262,  263,  264,  265,  266,  267,  268,  269,  270,  271,  272
  273,  274,  275,  276,  277,  278,  279,  280,  401,  402,  403,  404,  405,  406,  407,  408
  409,  410,  411,  412,  413,  414,  415,  416,  417,  418,  419,  420,  427,  434,  441,  448
  455,  462,  469,  476,  483,  490,  497,  504,  511,  518,  525,  532,  539,  546,  553,  560
  567,  574,  581,  588,  595,  602,  609,  616,  623,  630,  637,  644,  651,  658,  665,  672
  679,  686,  693,  700,  707,  714,  721,  728,  735,  742,  749,  756,  763,  770,  777,  784
  791,  798,  805,  812,  819,  826,  833,  840, 1501, 1502, 1503, 1504, 1505, 1506, 1507, 1508
 1509, 1510, 1511, 1512, 1513, 1514, 1515, 1516, 1517, 1518, 1519, 1520, 1521, 1522, 1523, 1524
 1525, 1526, 1527, 1528, 1529, 1530, 1531, 1532, 1533, 1534, 1535, 1536, 1537, 1538, 1539, 1540
 1541, 1542, 1543, 1544, 1545, 1546, 1547, 1548, 1549, 1550, 1551, 1552, 1553, 1554, 1555, 1556
 1557, 1558, 1559, 1560, 1561, 1562, 1563, 1564, 1565, 1566, 1567, 1568, 1569, 1570, 1571, 1572
 1573, 1574, 1575, 1576, 1577, 1578, 1579, 1580, 1581, 1582, 1583, 1584, 1585, 1586, 1587, 1588
 1589, 1590, 1591, 1592, 1593, 1594, 1595, 1596, 1597, 1598, 1599, 1600, 1601, 1602, 1603, 1604
 1605, 1606, 1607, 1608, 1609, 1610, 1611, 1612, 1613, 1614, 1615, 1616, 1617, 1618, 1619, 1620
 2287, 2294, 2301, 2308, 2315, 2322, 2329, 2336, 2343, 2350, 2357, 2364, 2371, 2378, 2385, 2392
 2399, 2406, 2413, 2420, 2427, 2434, 2441, 2448, 2455, 2462, 2469, 2476, 2483, 2490, 2497, 2504
 2511, 2518, 2525, 2532, 2539, 2546, 2553, 2560, 2567, 2574, 2581, 2588, 2595, 2602, 2609, 2616
 2623, 2630, 2637, 2644, 2651, 2658, 2665, 2672, 2679, 2686, 2693, 2700, 3061, 3062, 3063, 3064
 3065, 3066, 3067, 3068, 3069, 3070, 3071, 3072, 3073, 3074, 3075, 3076, 3077, 3078, 3079, 3080
 3081, 3082, 3083, 3084, 3085, 3086, 3087, 3088, 3089, 3090, 3091, 3092, 3093, 3094, 3095, 3096
 3097, 3098, 3099, 3100, 3101, 3102, 3103, 3104, 3105, 3106, 3107, 3108, 3109, 3110, 3111, 3112
 3113, 3114, 3115, 3116, 3117, 3118, 3119, 3120
*Elset, elset=MENGPICE, instance=BIAN-1
   1,   2,   3,   4,   5,   6,   7,   8,   9,  10,  11,  12,  13,  14,  15,  16
  17,  18,  19,  20,  21,  22,  23,  24,  25,  26,  27,  28,  29,  30,  31,  32
  33,  34,  35,  36,  37,  38,  39,  40,  41,  42,  43,  44,  45,  46,  47,  48
  49,  50,  51,  52,  53,  54,  55,  56,  57,  58,  59,  60,  61,  62,  63,  64
  65,  66,  67,  68,  69,  70,  71,  72,  73,  74,  75,  76,  77,  78,  79,  80
  81,  82,  83,  84,  85,  86,  87,  88,  89,  90,  91,  92,  93,  94,  95,  96
  97,  98,  99, 100, 101, 102, 103, 104, 105, 106, 107, 108, 109, 110, 111, 112
 113, 114, 115, 116, 117, 118, 119, 120, 121, 122, 123, 124, 125, 126, 127, 128
 129, 130, 131, 132, 133, 134, 135, 136, 137, 138, 139, 140, 141, 142, 143, 144
 145, 146, 147, 148, 149, 150, 151, 152, 153, 154, 155, 156, 157, 158, 159, 160
 161, 162, 163, 164, 165, 166, 167, 168, 169, 170, 171, 172, 173, 174, 175, 176
 177, 178, 179, 180, 181, 182, 183, 184, 185, 186, 187, 188, 189, 190, 191, 192
 193, 194, 195, 196, 197, 198, 199, 200, 201, 202, 203, 204, 205, 206, 207, 208
 209, 210, 211, 212, 213, 397, 398, 399, 400, 401, 402, 403, 404, 405, 406, 407
 408, 409, 410, 411, 412, 413, 414, 415, 416, 417, 418, 419, 420, 421, 422, 423
 424, 425, 426, 427, 428, 429, 430, 431, 432, 433, 434, 435, 436, 437, 438, 439
 440, 441, 442, 443, 444, 445, 446, 447, 448, 449, 450, 451, 452, 453, 454, 455
 456, 457, 458, 459, 460, 461, 462, 463, 464, 465, 466, 467, 468, 469, 470, 471
 472, 473, 474, 475, 476, 477, 478, 479, 480, 481, 482, 483, 484, 485, 486, 487
 488, 489, 490, 491, 492, 493, 494, 495, 496, 497, 498, 499, 500, 501, 502, 503
** ... 7 like lines cut
*Nset, nset=MENGPI_CRICLE_IN, instance=BIAN-1
    9,   10,   11,   12,   13,   14,   15,   16,   17,   18,   19,   20,   21,   22,   23,   24
  553,  554,  555,  556,  557,  558,  559,  560,  561,  562,  563,  564,  565,  566,  567,  568
  569,  570,  571,  572,  573,  574,  575,  576,  577,  578,  579,  580,  581,  582,  583,  584
  585,  586,  587,  588,  589,  590,  591,  592,  593,  594,  595,  596,  597,  598,  599,  600
  601,  602,  603,  604,  605,  606,  607,  608,  609,  610,  611,  612,  613,  614,  615,  616
  617,  618,  619,  620,  621,  622,  623,  624,  625,  626,  627,  628,  629,  630,  631,  632
  633,  634,  635,  636,  637,  638,  639,  640,  641,  642,  643,  644,  645,  646,  647,  648
  649,  650,  651,  652,  653,  654,  655,  656,  657,  658,  659,  660,  661,  662,  663,  664
  665,  666,  667,  668,  669,  670,  671,  672,  673,  674,  675,  676,  677,  678,  679,  680
  681,  682,  683,  684,  685,  686,  687,  688,  689,  690,  691,  692,  693,  694,  695,  696
  697,  698,  699,  700,  701,  702,  703,  704,  705,  706,  707,  708,  709,  710,  711,  712
  713,  714,  715,  716,  717,  718,  719,  720,  721,  722,  723,  724,  725,  726,  727,  728
  729,  730,  731,  732,  733,  734,  735,  736,  737,  738,  739,  740,  741,  742,  743,  744
  745,  746,  747,  748,  749,  750,  751,  752,  753,  754,  755,  756,  757,  758,  759,  760
  761,  762,  763,  764,  765,  766,  767,  768,  769,  770,  771,  772,  773,  774,  775,  776
  777,  778,  779,  780, 1301, 1302, 1303, 1304, 1305, 1306, 1307, 1308, 1309, 1310, 1311, 1312
 1313, 1314, 1315, 1316, 1317, 1318, 1319, 1320, 1321, 1322, 1323, 1324, 1325, 1326, 1327, 1328
 1329, 1330, 1331, 1332, 1333, 1334, 1335, 1336, 1337, 1338, 1339, 1340, 1341, 1342, 1343, 1344
 1345, 1346, 1347, 1348, 1349, 1350, 1351, 1352, 1353, 1354, 1355, 1356, 1357, 1358, 1359, 1360
 1361, 1362, 1363, 1364, 1365, 1366, 1367, 1368, 1369, 1370, 1371, 1372, 1373, 1374, 1375, 1376
** ... 9 like lines cut
*Elset, elset=MENGPI_CRICLE_IN, instance=BIAN-1, generate
  793,  1134,     1
*Nset, nset=MENGPI_DI, instance=MENGPI2-1, generate
    1,  3980,     1
*Elset, elset=MENGPI_DI, instance=MENGPI2-1, generate
    1,  3792,     1
*Nset, nset=MENGPI_MIDDOWN, instance=MENGPI2-1
 24,
*Nset, nset=MENGPI_MIDUP, instance=MENGPI2-1
 3,
*Nset, nset=MENGPI_SIDE, instance=BIAN-1
    1,    2,    3,    4,    5,    6,    7,    8,   25,   26,   27,   28,   29,   30,   31,   32
   33,   34,   35,   36,   37,   38,   39,   40,   41,   42,   43,   44,   45,   46,   47,   48
   49,   50,   51,   52,   53,   54,   55,   56,   57,   58,   59,   60,   61,   62,   63,   64
   65,   66,   67,   68,   69,   70,   71,   72,   73,   74,   75,   76,   77,   78,   79,   80
   81,   82,   83,   84,   85,   86,   87,   88,   89,   90,   91,   92,   93,   94,   95,   96
   97,   98,   99,  100,  101,  102,  103,  104,  105,  106,  107,  108,  109,  110,  111,  112
  113,  114,  115,  116,  117,  118,  119,  120,  121,  122,  123,  124,  125,  126,  127,  128
  129,  130,  131,  132,  133,  134,  135,  136,  137,  138,  139,  140,  141,  142,  143,  144
  145,  146,  147,  148,  149,  150,  151,  152,  153,  154,  155,  156,  157,  158,  159,  160
  161,  162,  163,  164,  165,  166,  167,  168,  169,  170,  171,  172,  173,  174,  175,  176
  177,  178,  179,  180,  181,  182,  183,  184,  185,  186,  187,  188,  189,  190,  191,  192
  193,  194,  195,  196,  197,  198,  199,  200,  201,  202,  203,  204,  205,  206,  207,  208
  209,  210,  211,  212,  213,  214,  215,  216,  217,  218,  219,  220,  221,  222,  223,  224
  225,  226,  227,  228,  229,  230,  231,  232,  233,  234,  235,  236,  237,  238,  239,  240
  241,  242,  243,  244,  245,  246,  247,  248,  249,  250,  251,  252,  253,  254,  255,  256
  257,  258,  259,  260,  261,  262,  263,  264,  265,  266,  267,  268,  269,  270,  271,  272
  273,  274,  275,  276,  277,  278,  279,  280,  281,  282,  283,  284,  285,  286,  287,  288
  289,  290,  291,  292,  293,  294,  295,  296,  297,  298,  299,  300,  301,  302,  303,  304
  305,  306,  307,  308,  309,  310,  311,  312,  313,  314,  315,  316,  317,  318,  319,  320
  321,  322,  323,  324,  325,  326,  327,  328,  329,  330,  331,  332,  333,  334,  335,  336
** ... 46 like lines cut
*Elset, elset=MENGPI_SIDE, instance=BIAN-1, generate
   1,  792,    1
*Nset, nset=M_SET-5
 1,
*Nset, nset=WANGGE_CRICLE_SIDE, instance=WANGGE-1
    1,    2,    5,    6,    9,   10,   13,   14,   17,   18,   19,   20,   23,   24,   73,   74
   81,   82,   89,   90,  157,  158,  161,  162,  165,  166,  189,  190,  207,  208,  211,  212
  233,  234,  235,  236,  317,  318, 1633, 1634, 1835, 1836, 2079, 2080, 3735, 3736, 3775, 3776
*Elset, elset=WANGGE_CRICLE_SIDE, instance=WANGGE-1
    1,    2,    3,   34,   35,   36,   58,   59,   60,   61,   62,   63,   91,   92,   93,   94
   95,   96,  214,  215,  216, 2203, 2204, 2205, 2509, 2510, 2511, 2881, 2882, 2883, 5392, 5393
 5394, 5449, 5450, 5451
*Nset, nset=WANGGE_DI, instance=WANGGE-1
    1,    4,    5,    8,    9,   12,   14,   15,   18,   20,   21,   24,   25,   28,   29,   31
   33,   35,   38,   40,   42,   44,   45,   48,   50,   52,   54,   55,   58,   60,   62,   64
   65,   68,   70,   72,   74,   75,   78,   80,   82,   83,   86,   87,   89,   92,   94,   96
   97,  100,  102,  104,  105,  108,  110,  112,  113,  116,  117,  120,  121,  124,  126,  128
  129,  132,  134,  136,  137,  140,  142,  144,  145,  147,  150,  151,  154,  155,  157,  160
  161,  164,  179,  180,  181,  182,  183,  184,  185,  186,  187,  188,  200,  201,  202,  203
  204,  205,  206,  213,  214,  215,  216,  217,  218,  219,  220,  221,  237,  238,  239,  240
  241,  242,  243,  244,  245,  246,  247,  248,  249,  250,  251,  252,  253,  254,  255,  256
  257,  258,  259,  260,  261,  262,  263,  264,  265,  266,  267,  268,  269,  270,  271,  272
  273,  274,  275,  319,  320,  321,  322,  323,  324,  325,  326,  327,  328,  329,  330,  331
  332,  333,  334,  335,  336,  337,  338,  339,  340,  341,  342,  343,  344,  345,  346,  347
  348,  349,  350,  351,  352,  353,  354,  395,  396,  397,  398,  399,  400,  401,  402,  403
  404,  405,  406,  407,  408,  409,  410,  411,  412,  413,  414,  415,  416,  417,  418,  419
  420,  421,  422,  423,  424,  425,  426,  427,  428,  429,  430,  431,  432,  433,  434,  435
  436,  437,  438,  439,  440,  441,  442,  443,  444,  445,  446,  447,  448,  449,  450,  451
  452,  453,  515,  516,  517,  518,  519,  520,  521,  522,  523,  524,  525,  526,  527,  528
  529,  530,  531,  532,  533,  534,  535,  536,  537,  538,  539,  540,  541,  542,  543,  544
  545,  546,  547,  603,  604,  605,  606,  607,  608,  609,  610,  611,  612,  613,  614,  615
  616,  617,  618,  619,  620,  628,  629,  630,  631,  632,  641,  642,  643,  644,  645,  646
  655,  656,  657,  658,  659,  660,  669,  670,  671,  672,  673,  674,  677,  678,  679,  680
** ... 94 like lines cut
*Elset, elset=WANGGE_DI, instance=WANGGE-1
    1,    4,    7,   10,   13,   16,   19,   22,   25,   28,   31,   34,   37,   40,   43,   46
   49,   52,   55,   58,   63,   66,   69,   72,   75,   78,   81,   84,   87,   90,   93,   96
   99,  102,  105,  108,  111,  114,  117,  120,  123,  126,  129,  132,  135,  138,  141,  144
  147,  150,  153,  156,  159,  162,  165,  168,  171,  174,  177,  180,  183,  186,  189,  192
  195,  198,  201,  204,  207,  210,  213,  216,  219,  222,  225,  228,  231,  234,  237,  240
  243,  246,  249,  252,  255,  258,  261,  264,  267,  270,  273,  276,  279,  282,  285,  288
  291,  294,  297,  300,  303,  306,  309,  312,  315,  318,  321,  324,  327,  330,  333,  336
  339,  342,  345,  348,  351,  354,  357,  360,  363,  366,  369,  372,  375,  378,  381,  384
  387,  390,  393,  396,  399,  402,  405,  408,  411,  414,  417,  420,  423,  426,  429,  432
  435,  438,  441,  444,  447,  450,  453,  456,  459,  462,  465,  468,  471,  474,  477,  480
  483,  486,  489,  492,  495,  498,  501,  504,  507,  510,  513,  516,  519,  522,  525,  528
  531,  534,  537,  540,  543,  546,  549,  552,  555,  558,  561,  564,  567,  570,  573,  576
  579,  582,  585,  588,  591,  594,  597,  600,  603,  606,  607,  610,  613,  616,  619,  622
  625,  628,  631,  634,  637,  640,  643,  646,  649,  652,  655,  658,  661,  664,  667,  670
  673,  676,  679,  682,  685,  688,  691,  694,  697,  700,  703,  706,  709,  712,  715,  718
  721,  724,  727,  730,  733,  736,  739,  742,  747,  750,  753,  756,  759,  762,  765,  768
  771,  774,  777,  780,  783,  786,  789,  792,  795,  798,  801,  804,  807,  810,  813,  816
  819,  822,  825,  828,  831,  834,  837,  840,  843,  846,  849,  852,  855,  858,  861,  864
  867,  870,  873,  876,  879,  882,  885,  888,  891,  894,  897,  900,  903,  906,  909,  912
  915,  918,  921,  924,  927,  930,  933,  936,  939,  942,  945,  948,  951,  954,  957,  960
** ... 95 like lines cut
*Nset, nset=WANGGE_SIDE_ALL, instance=WANGGE-1
   27,   28,   33,   34,   35,   36,   43,   44,   45,   46,   53,   54,   55,   56,   63,   64
   65,   66,   67,   68,   71,   72,   75,   76,   79,   80,   83,   84,   85,   86,   87,   88
   95,   96,   97,   98,  103,  104,  105,  106,  111,  112,  113,  114,  117,  118,  121,  122
  127,  128,  129,  130,  135,  136,  137,  138,  139,  140,  143,  144,  145,  146,  147,  148
  149,  150,  151,  152,  153,  154,  155,  156,  159,  160,  163,  164,  393,  394,  583,  584
  621,  622,  623,  624,  625,  626,  627,  628,  629,  630,  631,  632,  675,  676,  901,  902
  951,  952, 1183, 1184, 1233, 1234, 1467, 1468, 1469, 1470, 1513, 1514, 1649, 1650, 1711, 1712
 1855, 1856, 1913, 1914, 2051, 2052, 2103, 2104, 2313, 2314, 2363, 2364, 2573, 2574, 2623, 2624
 2833, 2834, 2933, 2934, 3035, 3036, 3093, 3094, 3303, 3304, 3361, 3362, 3571, 3572, 3605, 3606
 3633, 3634, 3635, 3636, 3687, 3688, 3713, 3714, 3715, 3716, 3717, 3718, 3725, 3726, 3733, 3734
 3755, 3756, 3793, 3794
*Elset, elset=WANGGE_SIDE_ALL, instance=WANGGE-1
  325,  326,  327,  607,  608,  609,  664,  665,  666,  667,  669,  670,  672,  673,  675,  676
  678,  679,  680,  681,  682,  683,  684,  745,  746,  747, 1090, 1091, 1092, 1165, 1166, 1167
 1519, 1520, 1521, 1594, 1595, 1596, 1951, 1952, 1953, 1954, 1955, 1956, 2023, 2024, 2025, 2227
 2228, 2229, 2323, 2324, 2325, 2539, 2540, 2541, 2632, 2633, 2634, 2839, 2840, 2841, 2914, 2915
 2916, 3232, 3233, 3234, 3307, 3308, 3309, 3625, 3626, 3627, 3700, 3701, 3702, 4018, 4019, 4020
 4174, 4175, 4176, 4333, 4334, 4335, 4420, 4421, 4422, 4738, 4739, 4740, 4825, 4826, 4827, 5143
 5144, 5145, 5206, 5207, 5208, 5236, 5237, 5238, 5239, 5240, 5241, 5317, 5318, 5319, 5320, 5321
 5322, 5359, 5360, 5361, 5362, 5363, 5364, 5365, 5366, 5367, 5377, 5378, 5379, 5389, 5390, 5391
 5446, 5447, 5448, 5497, 5498, 5499
*Nset, nset=BIAN_DI_CNS_, internal, instance=BIAN-1
   3,   4,   6,   8,   9,  12,  14,  15,  18,  21,  22,  24,  97,  98,  99, 100
 101, 102, 103, 104, 105, 106, 107, 108, 109, 110, 111, 112, 113, 114, 115, 116
 117, 118, 119, 120, 121, 122, 123, 124, 125, 126, 127, 128, 129, 130, 131, 132
 133, 134, 135, 136, 137, 138, 139, 140, 141, 142, 143, 144, 145, 146, 147, 148
 149, 150, 151, 152, 153, 154, 155, 156, 157, 158, 159, 160, 161, 162, 163, 164
 165, 166, 231, 232, 233, 234, 235, 236, 237, 238, 239, 240, 241, 242, 243, 244
 245, 246, 247, 248, 249, 250, 251, 252, 253, 254, 255, 256, 257, 258, 259, 260
 261, 262, 263, 264, 265, 266, 267, 268, 269, 270, 271, 272, 273, 274, 275, 276
 277, 278, 279, 280, 281, 282, 283, 284, 285, 286, 287, 288, 289, 290, 363, 364
 365, 366, 367, 368, 369, 370, 371, 372, 373, 374, 375, 376, 377, 378, 379, 380
 381, 382, 383, 384, 385, 386, 387, 388, 389, 390, 391, 392, 393, 394, 395, 396
 397, 398, 399, 400, 401, 402, 403, 404, 405, 406, 407, 408, 409, 410, 411, 412
 413, 414, 415, 416, 417, 418, 419, 420, 421, 422, 423, 424, 425, 426, 427, 428
 429, 430, 431, 432, 493, 494, 495, 496, 497, 498, 499, 500, 501, 502, 503, 504
 505, 506, 507, 508, 509, 510, 511, 512, 513, 514, 515, 516, 517, 518, 519, 520
 521, 522, 523, 524, 525, 526, 527, 528, 529, 530, 531, 532, 533, 534, 535, 536
 537, 538, 539, 540, 541, 542, 543, 544, 545, 546, 547, 548, 549, 550, 551, 552
 581, 582, 583, 584, 585, 586, 587, 588, 589, 590, 591, 592, 593, 594, 595, 596
 597, 598, 599, 600, 601, 602, 603, 604, 605, 606, 607, 608, 609, 610, 611, 612
 613, 614, 615, 616, 617, 618, 619, 620, 621, 622, 623, 624, 625, 626, 627, 628
** ... 4 like lines cut
*Nset, nset=MENGPI_CRICLE_IN_CNS_, internal, instance=BIAN-1
    9,   10,   11,   12,   13,   14,   15,   16,   17,   18,   19,   20,   21,   22,   23,   24
  553,  554,  555,  556,  557,  558,  559,  560,  561,  562,  563,  564,  565,  566,  567,  568
  569,  570,  571,  572,  573,  574,  575,  576,  577,  578,  579,  580,  581,  582,  583,  584
  585,  586,  587,  588,  589,  590,  591,  592,  593,  594,  595,  596,  597,  598,  599,  600
  601,  602,  603,  604,  605,  606,  607,  608,  609,  610,  611,  612,  613,  614,  615,  616
  617,  618,  619,  620,  621,  622,  623,  624,  625,  626,  627,  628,  629,  630,  631,  632
  633,  634,  635,  636,  637,  638,  639,  640,  641,  642,  643,  644,  645,  646,  647,  648
  649,  650,  651,  652,  653,  654,  655,  656,  657,  658,  659,  660,  661,  662,  663,  664
  665,  666,  667,  668,  669,  670,  671,  672,  673,  674,  675,  676,  677,  678,  679,  680
  681,  682,  683,  684,  685,  686,  687,  688,  689,  690,  691,  692,  693,  694,  695,  696
  697,  698,  699,  700,  701,  702,  703,  704,  705,  706,  707,  708,  709,  710,  711,  712
  713,  714,  715,  716,  717,  718,  719,  720,  721,  722,  723,  724,  725,  726,  727,  728
  729,  730,  731,  732,  733,  734,  735,  736,  737,  738,  739,  740,  741,  742,  743,  744
  745,  746,  747,  748,  749,  750,  751,  752,  753,  754,  755,  756,  757,  758,  759,  760
  761,  762,  763,  764,  765,  766,  767,  768,  769,  770,  771,  772,  773,  774,  775,  776
  777,  778,  779,  780, 1301, 1302, 1303, 1304, 1305, 1306, 1307, 1308, 1309, 1310, 1311, 1312
 1313, 1314, 1315, 1316, 1317, 1318, 1319, 1320, 1321, 1322, 1323, 1324, 1325, 1326, 1327, 1328
 1329, 1330, 1331, 1332, 1333, 1334, 1335, 1336, 1337, 1338, 1339, 1340, 1341, 1342, 1343, 1344
 1345, 1346, 1347, 1348, 1349, 1350, 1351, 1352, 1353, 1354, 1355, 1356, 1357, 1358, 1359, 1360
 1361, 1362, 1363, 1364, 1365, 1366, 1367, 1368, 1369, 1370, 1371, 1372, 1373, 1374, 1375, 1376
** ... 9 like lines cut
*Nset, nset=MENGPI_DI_CNS_, internal, instance=MENGPI2-1, generate
    1,  3980,     1
*Nset, nset=MENGPI_SIDE_CNS_, internal, instance=BIAN-1
    1,    2,    3,    4,    5,    6,    7,    8,   25,   26,   27,   28,   29,   30,   31,   32
   33,   34,   35,   36,   37,   38,   39,   40,   41,   42,   43,   44,   45,   46,   47,   48
   49,   50,   51,   52,   53,   54,   55,   56,   57,   58,   59,   60,   61,   62,   63,   64
   65,   66,   67,   68,   69,   70,   71,   72,   73,   74,   75,   76,   77,   78,   79,   80
   81,   82,   83,   84,   85,   86,   87,   88,   89,   90,   91,   92,   93,   94,   95,   96
   97,   98,   99,  100,  101,  102,  103,  104,  105,  106,  107,  108,  109,  110,  111,  112
  113,  114,  115,  116,  117,  118,  119,  120,  121,  122,  123,  124,  125,  126,  127,  128
  129,  130,  131,  132,  133,  134,  135,  136,  137,  138,  139,  140,  141,  142,  143,  144
  145,  146,  147,  148,  149,  150,  151,  152,  153,  154,  155,  156,  157,  158,  159,  160
  161,  162,  163,  164,  165,  166,  167,  168,  169,  170,  171,  172,  173,  174,  175,  176
  177,  178,  179,  180,  181,  182,  183,  184,  185,  186,  187,  188,  189,  190,  191,  192
  193,  194,  195,  196,  197,  198,  199,  200,  201,  202,  203,  204,  205,  206,  207,  208
  209,  210,  211,  212,  213,  214,  215,  216,  217,  218,  219,  220,  221,  222,  223,  224
  225,  226,  227,  228,  229,  230,  231,  232,  233,  234,  235,  236,  237,  238,  239,  240
  241,  242,  243,  244,  245,  246,  247,  248,  249,  250,  251,  252,  253,  254,  255,  256
  257,  258,  259,  260,  261,  262,  263,  264,  265,  266,  267,  268,  269,  270,  271,  272
  273,  274,  275,  276,  277,  278,  279,  280,  281,  282,  283,  284,  285,  286,  287,  288
  289,  290,  291,  292,  293,  294,  295,  296,  297,  298,  299,  300,  301,  302,  303,  304
  305,  306,  307,  308,  309,  310,  311,  312,  313,  314,  315,  316,  317,  318,  319,  320
  321,  322,  323,  324,  325,  326,  327,  328,  329,  330,  331,  332,  333,  334,  335,  336
** ... 46 like lines cut
*Nset, nset=WANGGE_CRICLE_SIDE_CNS_, internal, instance=WANGGE-1
    1,    2,    5,    6,    9,   10,   13,   14,   17,   18,   19,   20,   23,   24,   73,   74
   81,   82,   89,   90,  157,  158,  161,  162,  165,  166,  189,  190,  207,  208,  211,  212
  233,  234,  235,  236,  317,  318, 1633, 1634, 1835, 1836, 2079, 2080, 3735, 3736, 3775, 3776
*Nset, nset=WANGGE_DI_CNS_, internal, instance=WANGGE-1
    1,    4,    5,    8,    9,   12,   14,   15,   18,   20,   21,   24,   25,   28,   29,   31
   33,   35,   38,   40,   42,   44,   45,   48,   50,   52,   54,   55,   58,   60,   62,   64
   65,   68,   70,   72,   74,   75,   78,   80,   82,   83,   86,   87,   89,   92,   94,   96
   97,  100,  102,  104,  105,  108,  110,  112,  113,  116,  117,  120,  121,  124,  126,  128
  129,  132,  134,  136,  137,  140,  142,  144,  145,  147,  150,  151,  154,  155,  157,  160
  161,  164,  179,  180,  181,  182,  183,  184,  185,  186,  187,  188,  200,  201,  202,  203
  204,  205,  206,  213,  214,  215,  216,  217,  218,  219,  220,  221,  237,  238,  239,  240
  241,  242,  243,  244,  245,  246,  247,  248,  249,  250,  251,  252,  253,  254,  255,  256
  257,  258,  259,  260,  261,  262,  263,  264,  265,  266,  267,  268,  269,  270,  271,  272
  273,  274,  275,  319,  320,  321,  322,  323,  324,  325,  326,  327,  328,  329,  330,  331
  332,  333,  334,  335,  336,  337,  338,  339,  340,  341,  342,  343,  344,  345,  346,  347
  348,  349,  350,  351,  352,  353,  354,  395,  396,  397,  398,  399,  400,  401,  402,  403
  404,  405,  406,  407,  408,  409,  410,  411,  412,  413,  414,  415,  416,  417,  418,  419
  420,  421,  422,  423,  424,  425,  426,  427,  428,  429,  430,  431,  432,  433,  434,  435
  436,  437,  438,  439,  440,  441,  442,  443,  444,  445,  446,  447,  448,  449,  450,  451
  452,  453,  515,  516,  517,  518,  519,  520,  521,  522,  523,  524,  525,  526,  527,  528
  529,  530,  531,  532,  533,  534,  535,  536,  537,  538,  539,  540,  541,  542,  543,  544
  545,  546,  547,  603,  604,  605,  606,  607,  608,  609,  610,  611,  612,  613,  614,  615
  616,  617,  618,  619,  620,  628,  629,  630,  631,  632,  641,  642,  643,  644,  645,  646
  655,  656,  657,  658,  659,  660,  669,  670,  671,  672,  673,  674,  677,  678,  679,  680
** ... 94 like lines cut
*Nset, nset=WANGGE_SIDE_ALL_CNS_, internal, instance=WANGGE-1
   27,   28,   33,   34,   35,   36,   43,   44,   45,   46,   53,   54,   55,   56,   63,   64
   65,   66,   67,   68,   71,   72,   75,   76,   79,   80,   83,   84,   85,   86,   87,   88
   95,   96,   97,   98,  103,  104,  105,  106,  111,  112,  113,  114,  117,  118,  121,  122
  127,  128,  129,  130,  135,  136,  137,  138,  139,  140,  143,  144,  145,  146,  147,  148
  149,  150,  151,  152,  153,  154,  155,  156,  159,  160,  163,  164,  393,  394,  583,  584
  621,  622,  623,  624,  625,  626,  627,  628,  629,  630,  631,  632,  675,  676,  901,  902
  951,  952, 1183, 1184, 1233, 1234, 1467, 1468, 1469, 1470, 1513, 1514, 1649, 1650, 1711, 1712
 1855, 1856, 1913, 1914, 2051, 2052, 2103, 2104, 2313, 2314, 2363, 2364, 2573, 2574, 2623, 2624
 2833, 2834, 2933, 2934, 3035, 3036, 3093, 3094, 3303, 3304, 3361, 3362, 3571, 3572, 3605, 3606
 3633, 3634, 3635, 3636, 3687, 3688, 3713, 3714, 3715, 3716, 3717, 3718, 3725, 3726, 3733, 3734
 3755, 3756, 3793, 3794
*Nset, nset=_PICKEDSET17, internal, instance=JIAJU-1
    1,    2,    5,    8,   13,   14,   15,   16,   41,   42,   43,   44,   45,   46,   47,   48
   49,   50,   51,   52,   53,   54,   55,   56,   57,   58,   59,   91,   92,   93,   94,   95
   96,   97,   98,   99,  100,  101,  102,  103,  104,  105,  106,  107,  108,  109,  241,  242
  243,  244,  247,  248,  249,  250,  251,  252,  253,  254,  257,  258,  259,  260,  261,  262
  263,  264,  265,  266,  267,  268,  269,  270,  271,  272,  273,  274,  275,  276,  277,  278
  279,  280,  281,  282,  283,  284,  285,  286,  287,  288,  289,  290,  291,  292,  293,  294
  295,  296,  297,  298, 1439, 1440, 1441, 1442, 1443, 1444, 1445, 1446, 1447, 1448, 1449, 1450
 1451, 1452, 1453, 1454, 1455, 1456, 1457, 1458, 1459, 1460, 1461, 1462, 1463, 1464, 1465, 1466
 1467, 1468, 1469, 1470, 1471, 1472, 1473, 1474, 1475, 1476, 1477, 1478, 1479, 1480, 1481, 1482
 1483, 1484, 1485, 1486, 1487, 1488, 1489, 1490, 1491, 1492, 1493, 1494, 1495, 1496, 1497, 1498
 1499, 1500, 1501, 1502, 1503, 1504, 1505, 1506, 1507, 1508, 1509, 1510, 1511, 1512, 1513, 1514
 1515, 1516, 1517, 1518, 1519, 1520, 1521, 1522, 1523, 1524, 1525, 1526, 1527, 1528, 1529, 1530
 1531, 1532, 1533, 1534, 1535, 1536, 1537, 1538, 1539, 1540, 1541, 1542, 1543, 1544, 1545, 1546
 1547, 1548, 1549, 1550, 1551, 1552, 1553, 1554, 1555, 1556, 1557, 1558, 1559, 1560, 1561, 1562
 1563, 1564, 1565, 1566, 1567, 1568, 1569, 1570, 1571, 1572, 1573, 1574, 1575, 1576, 1577, 1578
 1579, 1580, 1581, 1582, 1583, 1584, 1585, 1586, 1587, 1588, 1589, 1590
*Elset, elset=_PICKEDSET17, internal, instance=JIAJU-1
  841,  842,  843,  844,  845,  851,  852,  853,  854,  855,  856,  857,  858,  859,  860,  866
  867,  868,  869,  870,  871,  872,  873,  874,  875,  881,  882,  883,  884,  885,  886,  887
  888,  889,  890,  896,  897,  898,  899,  900,  901,  902,  903,  904,  905,  911,  912,  913
  914,  915,  916,  917,  918,  919,  920,  926,  927,  928,  929,  930,  931,  932,  933,  934
  935,  941,  942,  943,  944,  945,  946,  947,  948,  949,  950,  956,  957,  958,  959,  960
  961,  962,  963,  964,  965,  971,  972,  973,  974,  975,  976,  977,  978,  979,  980,  986
  987,  988,  989,  990,  991,  992,  993,  994,  995, 1001, 1002, 1003, 1004, 1005, 1006, 1007
 1008, 1009, 1010, 1016, 1017, 1018, 1019, 1020, 1021, 1022, 1023, 1024, 1025, 1031, 1032, 1033
 1034, 1035, 1036, 1037, 1038, 1039, 1040, 1046, 1047, 1048, 1049, 1050, 1051, 1052, 1053, 1054
 1055, 1061, 1062, 1063, 1064, 1065, 1066, 1067, 1068, 1069, 1070, 1076, 1077, 1078, 1079, 1080
 1081, 1082, 1083, 1084, 1085, 1091, 1092, 1093, 1094, 1095, 1096, 1097, 1098, 1099, 1100, 1106
 1107, 1108, 1109, 1110, 1111, 1112, 1113, 1114, 1115, 1121, 1122, 1123, 1124, 1125, 1126, 1127
 1128, 1129, 1130, 1136, 1137, 1138, 1139, 1140
*Elset, elset=_S_SURF-6_SNEG, internal, instance=BIAN-1
 214, 215, 216, 217, 218, 219, 220, 221, 222, 223, 224, 225, 226, 227, 228, 229
 230, 231, 232, 233, 234, 235, 236, 237, 238, 239, 240, 241, 242, 243, 244, 245
 246, 247, 248, 249, 250, 251, 252, 253, 254, 255, 256, 257, 258, 259, 260, 261
 262, 263, 264, 265, 266, 267, 268, 269, 270, 271, 272, 273, 274, 275, 276, 277
 278, 279, 280, 281, 282, 283, 284, 285, 286, 287, 288, 289, 290, 291, 292, 293
 294, 295, 296, 297, 298, 299, 300, 301, 302, 303, 304, 305, 306, 307, 308, 309
 310, 311, 312, 313, 314, 315, 316, 317, 318, 319, 320, 321, 322, 323, 324, 325
 326, 327, 328, 329, 330, 331, 332, 333, 334, 335, 336, 337, 338, 339, 340, 341
 342, 343, 344, 345, 346, 347, 348, 349, 350, 351, 352, 353, 354, 355, 356, 357
 358, 359, 360, 361, 362, 363, 364, 365, 366, 367, 368, 369, 370, 371, 372, 373
 374, 375, 376, 377, 378, 379, 380, 381, 382, 383, 384, 385, 386, 387, 388, 389
 390, 391, 392, 393, 394, 395, 396, 610, 611, 612, 613, 614, 615, 616, 617, 618
 619, 620, 621, 622, 623, 624, 625, 626, 627, 628, 629, 630, 631, 632, 633, 634
 635, 636, 637, 638, 639, 640, 641, 642, 643, 644, 645, 646, 647, 648, 649, 650
 651, 652, 653, 654, 655, 656, 657, 658, 659, 660, 661, 662, 663, 664, 665, 666
 667, 668, 669, 670, 671, 672, 673, 674, 675, 676, 677, 678, 679, 680, 681, 682
 683, 684, 685, 686, 687, 688, 689, 690, 691, 692, 693, 694, 695, 696, 697, 698
 699, 700, 701, 702, 703, 704, 705, 706, 707, 708, 709, 710, 711, 712, 713, 714
 715, 716, 717, 718, 719, 720, 721, 722, 723, 724, 725, 726, 727, 728, 729, 730
 731, 732, 733, 734, 735, 736, 737, 738, 739, 740, 741, 742, 743, 744, 745, 746
 747, 748, 749, 750, 751, 752, 753, 754, 755, 756, 757, 758, 759, 760, 761, 762
 763, 764, 765, 766, 767, 768, 769, 770, 771, 772, 773, 774, 775, 776, 777, 778
 779, 780, 781, 782, 783, 784, 785, 786, 787, 788, 789, 790, 791, 792
*Elset, elset=__PICKEDSURF18_S3, internal, instance=JIAJU-1
 1981, 1982, 1983, 1984, 1985, 1996, 1997, 1998, 1999, 2000, 2011, 2012, 2013, 2014, 2015, 2026
 2027, 2028, 2029, 2030, 2041, 2042, 2043, 2044, 2045, 2056, 2057, 2058, 2059, 2060, 2071, 2072
 2073, 2074, 2075, 2086, 2087, 2088, 2089, 2090, 2101, 2102, 2103, 2104, 2105, 2116, 2117, 2118
 2119, 2120, 2131, 2132, 2133, 2134, 2135, 2146, 2147, 2148, 2149, 2150, 2161, 2162, 2163, 2164
 2165, 2176, 2177, 2178, 2179, 2180, 2191, 2192, 2193, 2194, 2195, 2206, 2207, 2208, 2209, 2210
 2221, 2222, 2223, 2224, 2225, 2236, 2237, 2238, 2239, 2240, 2251, 2252, 2253, 2254, 2255, 2266
 2267, 2268, 2269, 2270
*Elset, elset=__PICKEDSURF18_S5, internal, instance=JIAJU-1
 1991, 1992, 1993, 1994, 1995, 2006, 2007, 2008, 2009, 2010, 2021, 2022, 2023, 2024, 2025, 2036
 2037, 2038, 2039, 2040, 2051, 2052, 2053, 2054, 2055, 2066, 2067, 2068, 2069, 2070, 2081, 2082
 2083, 2084, 2085, 2096, 2097, 2098, 2099, 2100, 2111, 2112, 2113, 2114, 2115, 2126, 2127, 2128
 2129, 2130, 2141, 2142, 2143, 2144, 2145, 2156, 2157, 2158, 2159, 2160, 2171, 2172, 2173, 2174
 2175, 2186, 2187, 2188, 2189, 2190, 2201, 2202, 2203, 2204, 2205, 2216, 2217, 2218, 2219, 2220
 2231, 2232, 2233, 2234, 2235, 2246, 2247, 2248, 2249, 2250, 2261, 2262, 2263, 2264, 2265, 2276
 2277, 2278, 2279, 2280
*Elset, elset=__PICKEDSURF21_S1, internal, instance=JIAJU-1
 1501, 1502, 1503, 1504, 1505, 1506, 1507, 1508, 1509, 1510, 1511, 1512, 1513, 1514, 1515, 1516
 1517, 1518, 1519, 1520, 1521, 1522, 1523, 1524, 1525, 1526, 1527, 1528, 1529, 1530, 1531, 1532
 1533, 1534, 1535, 1536, 1537, 1538, 1539, 1540, 1541, 1542, 1543, 1544, 1545, 1546, 1547, 1548
 1549, 1550, 1551, 1552, 1553, 1554, 1555, 1556, 1557, 1558, 1559, 1560, 3061, 3062, 3063, 3064
 3065, 3066, 3067, 3068, 3069, 3070, 3071, 3072, 3073, 3074, 3075, 3076, 3077, 3078, 3079, 3080
 3081, 3082, 3083, 3084, 3085, 3086, 3087, 3088, 3089, 3090, 3091, 3092, 3093, 3094, 3095, 3096
 3097, 3098, 3099, 3100, 3101, 3102, 3103, 3104, 3105, 3106, 3107, 3108, 3109, 3110, 3111, 3112
 3113, 3114, 3115, 3116, 3117, 3118, 3119, 3120
*Elset, elset=__PICKEDSURF21_S2, internal, instance=JIAJU-1, generate
 1561,  1620,     1
*Elset, elset=__PICKEDSURF21_S4, internal, instance=JIAJU-1
  427,  434,  441,  448,  455,  462,  469,  476,  483,  490,  497,  504,  511,  518,  525,  532
  539,  546,  553,  560,  567,  574,  581,  588,  595,  602,  609,  616,  623,  630,  637,  644
  651,  658,  665,  672,  679,  686,  693,  700,  707,  714,  721,  728,  735,  742,  749,  756
  763,  770,  777,  784,  791,  798,  805,  812,  819,  826,  833,  840, 2287, 2294, 2301, 2308
 2315, 2322, 2329, 2336, 2343, 2350, 2357, 2364, 2371, 2378, 2385, 2392, 2399, 2406, 2413, 2420
 2427, 2434, 2441, 2448, 2455, 2462, 2469, 2476, 2483, 2490, 2497, 2504, 2511, 2518, 2525, 2532
 2539, 2546, 2553, 2560, 2567, 2574, 2581, 2588, 2595, 2602, 2609, 2616, 2623, 2630, 2637, 2644
 2651, 2658, 2665, 2672, 2679, 2686, 2693, 2700
*Elset, elset=__PICKEDSURF21_S5, internal, instance=JIAJU-1
 121, 122, 123, 124, 125, 126, 127, 128, 129, 130, 131, 132, 133, 134, 135, 136
 137, 138, 139, 140, 261, 262, 263, 264, 265, 266, 267, 268, 269, 270, 271, 272
 273, 274, 275, 276, 277, 278, 279, 280, 401, 402, 403, 404, 405, 406, 407, 408
 409, 410, 411, 412, 413, 414, 415, 416, 417, 418, 419, 420
*Surface, type=ELEMENT, name=S_SURF-6
_S_SURF-6_SNEG, SNEG
*Elset, elset=__PICKEDSURF18_S5_1, internal, instance=JIAJU-1
 1991, 1992, 1993, 1994, 1995, 2006, 2007, 2008, 2009, 2010, 2021, 2022, 2023, 2024, 2025, 2036
 2037, 2038, 2039, 2040, 2051, 2052, 2053, 2054, 2055, 2066, 2067, 2068, 2069, 2070, 2081, 2082
 2083, 2084, 2085, 2096, 2097, 2098, 2099, 2100, 2111, 2112, 2113, 2114, 2115, 2126, 2127, 2128
 2129, 2130, 2141, 2142, 2143, 2144, 2145, 2156, 2157, 2158, 2159, 2160, 2171, 2172, 2173, 2174
 2175, 2186, 2187, 2188, 2189, 2190, 2201, 2202, 2203, 2204, 2205, 2216, 2217, 2218, 2219, 2220
 2231, 2232, 2233, 2234, 2235, 2246, 2247, 2248, 2249, 2250, 2261, 2262, 2263, 2264, 2265, 2276
 2277, 2278, 2279, 2280
*Elset, elset=__PICKEDSURF18_S3_1, internal, instance=JIAJU-1
 1981, 1982, 1983, 1984, 1985, 1996, 1997, 1998, 1999, 2000, 2011, 2012, 2013, 2014, 2015, 2026
 2027, 2028, 2029, 2030, 2041, 2042, 2043, 2044, 2045, 2056, 2057, 2058, 2059, 2060, 2071, 2072
 2073, 2074, 2075, 2086, 2087, 2088, 2089, 2090, 2101, 2102, 2103, 2104, 2105, 2116, 2117, 2118
 2119, 2120, 2131, 2132, 2133, 2134, 2135, 2146, 2147, 2148, 2149, 2150, 2161, 2162, 2163, 2164
 2165, 2176, 2177, 2178, 2179, 2180, 2191, 2192, 2193, 2194, 2195, 2206, 2207, 2208, 2209, 2210
 2221, 2222, 2223, 2224, 2225, 2236, 2237, 2238, 2239, 2240, 2251, 2252, 2253, 2254, 2255, 2266
 2267, 2268, 2269, 2270
*Surface, type=ELEMENT, name=_PICKEDSURF18, internal
__PICKEDSURF18_S5_1, S5
__PICKEDSURF18_S3_1, S3
*Elset, elset=__PICKEDSURF21_S5_1, internal, instance=JIAJU-1
 121, 122, 123, 124, 125, 126, 127, 128, 129, 130, 131, 132, 133, 134, 135, 136
 137, 138, 139, 140, 261, 262, 263, 264, 265, 266, 267, 268, 269, 270, 271, 272
 273, 274, 275, 276, 277, 278, 279, 280, 401, 402, 403, 404, 405, 406, 407, 408
 409, 410, 411, 412, 413, 414, 415, 416, 417, 418, 419, 420
*Elset, elset=__PICKEDSURF21_S4_1, internal, instance=JIAJU-1
  427,  434,  441,  448,  455,  462,  469,  476,  483,  490,  497,  504,  511,  518,  525,  532
  539,  546,  553,  560,  567,  574,  581,  588,  595,  602,  609,  616,  623,  630,  637,  644
  651,  658,  665,  672,  679,  686,  693,  700,  707,  714,  721,  728,  735,  742,  749,  756
  763,  770,  777,  784,  791,  798,  805,  812,  819,  826,  833,  840, 2287, 2294, 2301, 2308
 2315, 2322, 2329, 2336, 2343, 2350, 2357, 2364, 2371, 2378, 2385, 2392, 2399, 2406, 2413, 2420
 2427, 2434, 2441, 2448, 2455, 2462, 2469, 2476, 2483, 2490, 2497, 2504, 2511, 2518, 2525, 2532
 2539, 2546, 2553, 2560, 2567, 2574, 2581, 2588, 2595, 2602, 2609, 2616, 2623, 2630, 2637, 2644
 2651, 2658, 2665, 2672, 2679, 2686, 2693, 2700
*Elset, elset=__PICKEDSURF21_S2_1, internal, instance=JIAJU-1, generate
 1561,  1620,     1
*Elset, elset=__PICKEDSURF21_S1_1, internal, instance=JIAJU-1
 1501, 1502, 1503, 1504, 1505, 1506, 1507, 1508, 1509, 1510, 1511, 1512, 1513, 1514, 1515, 1516
 1517, 1518, 1519, 1520, 1521, 1522, 1523, 1524, 1525, 1526, 1527, 1528, 1529, 1530, 1531, 1532
 1533, 1534, 1535, 1536, 1537, 1538, 1539, 1540, 1541, 1542, 1543, 1544, 1545, 1546, 1547, 1548
 1549, 1550, 1551, 1552, 1553, 1554, 1555, 1556, 1557, 1558, 1559, 1560, 3061, 3062, 3063, 3064
 3065, 3066, 3067, 3068, 3069, 3070, 3071, 3072, 3073, 3074, 3075, 3076, 3077, 3078, 3079, 3080
 3081, 3082, 3083, 3084, 3085, 3086, 3087, 3088, 3089, 3090, 3091, 3092, 3093, 3094, 3095, 3096
 3097, 3098, 3099, 3100, 3101, 3102, 3103, 3104, 3105, 3106, 3107, 3108, 3109, 3110, 3111, 3112
 3113, 3114, 3115, 3116, 3117, 3118, 3119, 3120
*Surface, type=ELEMENT, name=_PICKEDSURF21, internal
__PICKEDSURF21_S5_1, S5
__PICKEDSURF21_S4_1, S4
__PICKEDSURF21_S2_1, S2
__PICKEDSURF21_S1_1, S1
*Surface, type=NODE, name=MENGPI_DI_CNS__CNS_, internal
MENGPI_DI_CNS_, 1.
*Surface, type=NODE, name=BIAN_DI_CNS__CNS_, internal
BIAN_DI_CNS_, 1.
*Surface, type=NODE, name=WANGGE_DI_CNS__CNS_, internal
WANGGE_DI_CNS_, 1.
*Surface, type=NODE, name=MENGPI_SIDE_CNS__CNS_, internal
MENGPI_SIDE_CNS_, 1.
*Surface, type=NODE, name=WANGGE_SIDE_ALL_CNS__CNS_, internal
WANGGE_SIDE_ALL_CNS_, 1.
*Surface, type=NODE, name=MENGPI_CRICLE_IN_CNS__CNS_, internal
MENGPI_CRICLE_IN_CNS_, 1.
*Surface, type=NODE, name=WANGGE_CRICLE_SIDE_CNS__CNS_, internal
WANGGE_CRICLE_SIDE_CNS_, 1.
** Constraint: BIAN_PI-1
*Tie, name=BIAN_PI-1, adjust=yes
BIAN_DI_CNS__CNS_, MENGPI_DI_CNS__CNS_
** Constraint: CONSTRAINT-3-1
*Tie, name=CONSTRAINT-3-1, adjust=no, position tolerance=10.
MENGPI_DI_CNS__CNS_, WANGGE_DI_CNS__CNS_
** Constraint: CONSTRAINT-4-1
*Tie, name=CONSTRAINT-4-1, adjust=no, position tolerance=10.
WANGGE_SIDE_ALL_CNS__CNS_, MENGPI_SIDE_CNS__CNS_
** Constraint: CONSTRAINT-5-1
*Tie, name=CONSTRAINT-5-1, adjust=no, position tolerance=10.
WANGGE_CRICLE_SIDE_CNS__CNS_, MENGPI_CRICLE_IN_CNS__CNS_
** Constraint: JIAJU-MENGPI-1
*Tie, name=JIAJU-MENGPI-1, adjust=no, position tolerance=5.
_PICKEDSURF21, S_SURF-6
** Constraint: LOAD
*Coupling, constraint name=LOAD, ref node=JIAJU-1.OUTPUT, surface=_PICKEDSURF18
*Kinematic
*End Assembly
*Amplitude, name=AMP-1
             0.,              0.,             0.1,              1.
** 
** MATERIALS
** 
*Material, name=AL
*Density
 2.72e-09,
*Elastic
68100., 0.3
*Plastic
  272.,    0.
 307.5, 0.135
** 
** BOUNDARY CONDITIONS
** 
** Name: Disp-BC-1 Type: Symmetry/Antisymmetry/Encastre
*Boundary
_PICKEDSET17, ENCASTRE
** ----------------------------------------------------------------
** 
** STEP: Step-1
** 
*Step, name=Step-1, nlgeom=YES
*Dynamic, Explicit
, 0.1
*Bulk Viscosity
0.06, 1.2
** 
** BOUNDARY CONDITIONS
** 
** Name: Disp-BC-2 Type: Displacement/Rotation
*Boundary, amplitude=AMP-1
JIAJU-1.OUTPUT, 1, 1
** Name: Disp-BC-3 Type: Displacement/Rotation
*Boundary, amplitude=AMP-1
JIAJU-1.OUTPUT, 2, 2, -4.
** Name: Disp-BC-4 Type: Displacement/Rotation
*Boundary, amplitude=AMP-1
JIAJU-1.OUTPUT, 3, 3
** Name: Disp-BC-5 Type: Displacement/Rotation
*Boundary, amplitude=AMP-1
JIAJU-1.OUTPUT, 4, 4
** Name: Disp-BC-6 Type: Displacement/Rotation
*Boundary, amplitude=AMP-1
JIAJU-1.OUTPUT, 5, 5
** Name: Disp-BC-7 Type: Displacement/Rotation
*Boundary, amplitude=AMP-1
JIAJU-1.OUTPUT, 6, 6
** 
** OUTPUT REQUESTS
** 
*Restart, write, number interval=1, time marks=NO
** 
** FIELD OUTPUT: F-Output-1
** 
*Output, field, number interval=50, time marks=YES
*Node Output
RF, U
*Element Output, directions=YES
E, LE, PEEQ
** 
** FIELD OUTPUT: F-Output-2
** 
*Element Output, directions=YES
E, MISES, PE, PEEQ
** 
** HISTORY OUTPUT: H-Output-1
** 
*Output, history, variable=PRESELECT, frequency=10
** 
** HISTORY OUTPUT: H-Output-2
** 
*Output, history, time interval=0.001
*Node Output, nset=MENGPI_MIDDOWN
U1, U2, U3
** 
** HISTORY OUTPUT: H-Output-3
** 
*Node Output, nset=MENGPI_MIDUP
U1, U2, U3
** 
** HISTORY OUTPUT: H-Output-4
** 
*Node Output, nset=JIAJU-1.OUTPUT
RF2, U1, U2, U3
*End Step
